Results for --cpu-type=RiscvO3CPU --l1d_size=1kB --l1i_size=1kB --l2_size=16kB --l1d_assoc=1 --bp-type=TournamentBP
Global frequency set at 1000000000000 ticks per second
build/RISCV/mem/dram_interface.cc:692: warn: DRAM device capacity (8192 Mbytes) does not match the address range assigned (512 Mbytes)
0: system.remote_gdb: listening for remote gdb on port 7000
gem5 Simulator System.  https://www.gem5.org
gem5 is copyrighted software; use the --copyright option for details.

gem5 version 22.1.0.0
gem5 compiled Jun 19 2024 20:43:50
gem5 started Jun 24 2024 20:44:46
gem5 executing on ECE4700Jgem5-9, pid 22453
command line: build/RISCV/gem5.opt configs/example/se.py --param 'system.cpu[0].workload[:].release="99.99.99"' --cmd=lab4/part2_test --cpu-type=RiscvO3CPU --l1d_size=1kB --l1i_size=1kB --l2_size=16kB --l1d_assoc=1 --bp-type=TournamentBP --caches --l2cache

**** REAL SIMULATION ****
warn: The `get_runtime_isa` function is deprecated. Please migrate away from using this function.
warn: The `get_runtime_isa` function is deprecated. Please migrate away from using this function.
warn: No dot file generated. Please install pydot to generate the dot file and pdf.
build/RISCV/sim/simulate.cc:192: info: Entering event queue @ 0.  Starting simulation...
build/RISCV/sim/syscall_emul.cc:86: warn: ignoring syscall set_robust_list(...)
      (further warnings will be suppressed)
build/RISCV/sim/mem_state.cc:443: info: Increasing stack size by one page.
build/RISCV/sim/syscall_emul.cc:74: warn: ignoring syscall mprotect(...)
Exiting @ tick 81184000 because exiting with last active thread context


Results for --cpu-type=RiscvO3CPU --l1d_size=1kB --l1i_size=1kB --l2_size=16kB --l1d_assoc=1 --bp-type=LTAGE
Global frequency set at 1000000000000 ticks per second
build/RISCV/mem/dram_interface.cc:692: warn: DRAM device capacity (8192 Mbytes) does not match the address range assigned (512 Mbytes)
0: system.remote_gdb: listening for remote gdb on port 7000
gem5 Simulator System.  https://www.gem5.org
gem5 is copyrighted software; use the --copyright option for details.

gem5 version 22.1.0.0
gem5 compiled Jun 19 2024 20:43:50
gem5 started Jun 24 2024 20:44:48
gem5 executing on ECE4700Jgem5-9, pid 22454
command line: build/RISCV/gem5.opt configs/example/se.py --param 'system.cpu[0].workload[:].release="99.99.99"' --cmd=lab4/part2_test --cpu-type=RiscvO3CPU --l1d_size=1kB --l1i_size=1kB --l2_size=16kB --l1d_assoc=1 --bp-type=LTAGE --caches --l2cache

**** REAL SIMULATION ****
warn: The `get_runtime_isa` function is deprecated. Please migrate away from using this function.
warn: The `get_runtime_isa` function is deprecated. Please migrate away from using this function.
warn: No dot file generated. Please install pydot to generate the dot file and pdf.
build/RISCV/sim/simulate.cc:192: info: Entering event queue @ 0.  Starting simulation...
build/RISCV/sim/syscall_emul.cc:86: warn: ignoring syscall set_robust_list(...)
      (further warnings will be suppressed)
build/RISCV/sim/mem_state.cc:443: info: Increasing stack size by one page.
build/RISCV/sim/syscall_emul.cc:74: warn: ignoring syscall mprotect(...)
Exiting @ tick 86799000 because exiting with last active thread context


Results for --cpu-type=RiscvO3CPU --l1d_size=1kB --l1i_size=1kB --l2_size=16kB --l1d_assoc=2 --bp-type=TournamentBP
Global frequency set at 1000000000000 ticks per second
build/RISCV/mem/dram_interface.cc:692: warn: DRAM device capacity (8192 Mbytes) does not match the address range assigned (512 Mbytes)
0: system.remote_gdb: listening for remote gdb on port 7000
gem5 Simulator System.  https://www.gem5.org
gem5 is copyrighted software; use the --copyright option for details.

gem5 version 22.1.0.0
gem5 compiled Jun 19 2024 20:43:50
gem5 started Jun 24 2024 20:44:49
gem5 executing on ECE4700Jgem5-9, pid 22455
command line: build/RISCV/gem5.opt configs/example/se.py --param 'system.cpu[0].workload[:].release="99.99.99"' --cmd=lab4/part2_test --cpu-type=RiscvO3CPU --l1d_size=1kB --l1i_size=1kB --l2_size=16kB --l1d_assoc=2 --bp-type=TournamentBP --caches --l2cache

**** REAL SIMULATION ****
warn: The `get_runtime_isa` function is deprecated. Please migrate away from using this function.
warn: The `get_runtime_isa` function is deprecated. Please migrate away from using this function.
warn: No dot file generated. Please install pydot to generate the dot file and pdf.
build/RISCV/sim/simulate.cc:192: info: Entering event queue @ 0.  Starting simulation...
build/RISCV/sim/syscall_emul.cc:86: warn: ignoring syscall set_robust_list(...)
      (further warnings will be suppressed)
build/RISCV/sim/mem_state.cc:443: info: Increasing stack size by one page.
build/RISCV/sim/syscall_emul.cc:74: warn: ignoring syscall mprotect(...)
Exiting @ tick 72066000 because exiting with last active thread context


Results for --cpu-type=RiscvO3CPU --l1d_size=1kB --l1i_size=1kB --l2_size=16kB --l1d_assoc=2 --bp-type=LTAGE
Global frequency set at 1000000000000 ticks per second
build/RISCV/mem/dram_interface.cc:692: warn: DRAM device capacity (8192 Mbytes) does not match the address range assigned (512 Mbytes)
0: system.remote_gdb: listening for remote gdb on port 7000
gem5 Simulator System.  https://www.gem5.org
gem5 is copyrighted software; use the --copyright option for details.

gem5 version 22.1.0.0
gem5 compiled Jun 19 2024 20:43:50
gem5 started Jun 24 2024 20:44:50
gem5 executing on ECE4700Jgem5-9, pid 22456
command line: build/RISCV/gem5.opt configs/example/se.py --param 'system.cpu[0].workload[:].release="99.99.99"' --cmd=lab4/part2_test --cpu-type=RiscvO3CPU --l1d_size=1kB --l1i_size=1kB --l2_size=16kB --l1d_assoc=2 --bp-type=LTAGE --caches --l2cache

**** REAL SIMULATION ****
warn: The `get_runtime_isa` function is deprecated. Please migrate away from using this function.
warn: The `get_runtime_isa` function is deprecated. Please migrate away from using this function.
warn: No dot file generated. Please install pydot to generate the dot file and pdf.
build/RISCV/sim/simulate.cc:192: info: Entering event queue @ 0.  Starting simulation...
build/RISCV/sim/syscall_emul.cc:86: warn: ignoring syscall set_robust_list(...)
      (further warnings will be suppressed)
build/RISCV/sim/mem_state.cc:443: info: Increasing stack size by one page.
build/RISCV/sim/syscall_emul.cc:74: warn: ignoring syscall mprotect(...)
Exiting @ tick 75971000 because exiting with last active thread context


Results for --cpu-type=RiscvO3CPU --l1d_size=1kB --l1i_size=1kB --l2_size=16kB --l1d_assoc=4 --bp-type=TournamentBP
Global frequency set at 1000000000000 ticks per second
build/RISCV/mem/dram_interface.cc:692: warn: DRAM device capacity (8192 Mbytes) does not match the address range assigned (512 Mbytes)
0: system.remote_gdb: listening for remote gdb on port 7000
gem5 Simulator System.  https://www.gem5.org
gem5 is copyrighted software; use the --copyright option for details.

gem5 version 22.1.0.0
gem5 compiled Jun 19 2024 20:43:50
gem5 started Jun 24 2024 20:44:52
gem5 executing on ECE4700Jgem5-9, pid 22457
command line: build/RISCV/gem5.opt configs/example/se.py --param 'system.cpu[0].workload[:].release="99.99.99"' --cmd=lab4/part2_test --cpu-type=RiscvO3CPU --l1d_size=1kB --l1i_size=1kB --l2_size=16kB --l1d_assoc=4 --bp-type=TournamentBP --caches --l2cache

**** REAL SIMULATION ****
warn: The `get_runtime_isa` function is deprecated. Please migrate away from using this function.
warn: The `get_runtime_isa` function is deprecated. Please migrate away from using this function.
warn: No dot file generated. Please install pydot to generate the dot file and pdf.
build/RISCV/sim/simulate.cc:192: info: Entering event queue @ 0.  Starting simulation...
build/RISCV/sim/syscall_emul.cc:86: warn: ignoring syscall set_robust_list(...)
      (further warnings will be suppressed)
build/RISCV/sim/mem_state.cc:443: info: Increasing stack size by one page.
build/RISCV/sim/syscall_emul.cc:74: warn: ignoring syscall mprotect(...)
Exiting @ tick 69861000 because exiting with last active thread context


Results for --cpu-type=RiscvO3CPU --l1d_size=1kB --l1i_size=1kB --l2_size=16kB --l1d_assoc=4 --bp-type=LTAGE
Global frequency set at 1000000000000 ticks per second
build/RISCV/mem/dram_interface.cc:692: warn: DRAM device capacity (8192 Mbytes) does not match the address range assigned (512 Mbytes)
0: system.remote_gdb: listening for remote gdb on port 7000
gem5 Simulator System.  https://www.gem5.org
gem5 is copyrighted software; use the --copyright option for details.

gem5 version 22.1.0.0
gem5 compiled Jun 19 2024 20:43:50
gem5 started Jun 24 2024 20:44:53
gem5 executing on ECE4700Jgem5-9, pid 22458
command line: build/RISCV/gem5.opt configs/example/se.py --param 'system.cpu[0].workload[:].release="99.99.99"' --cmd=lab4/part2_test --cpu-type=RiscvO3CPU --l1d_size=1kB --l1i_size=1kB --l2_size=16kB --l1d_assoc=4 --bp-type=LTAGE --caches --l2cache

**** REAL SIMULATION ****
warn: The `get_runtime_isa` function is deprecated. Please migrate away from using this function.
warn: The `get_runtime_isa` function is deprecated. Please migrate away from using this function.
warn: No dot file generated. Please install pydot to generate the dot file and pdf.
build/RISCV/sim/simulate.cc:192: info: Entering event queue @ 0.  Starting simulation...
build/RISCV/sim/syscall_emul.cc:86: warn: ignoring syscall set_robust_list(...)
      (further warnings will be suppressed)
build/RISCV/sim/mem_state.cc:443: info: Increasing stack size by one page.
build/RISCV/sim/syscall_emul.cc:74: warn: ignoring syscall mprotect(...)
Exiting @ tick 73884000 because exiting with last active thread context


Results for --cpu-type=RiscvO3CPU --l1d_size=1kB --l1i_size=1kB --l2_size=16kB --l1d_assoc=8 --bp-type=TournamentBP
Global frequency set at 1000000000000 ticks per second
build/RISCV/mem/dram_interface.cc:692: warn: DRAM device capacity (8192 Mbytes) does not match the address range assigned (512 Mbytes)
0: system.remote_gdb: listening for remote gdb on port 7000
gem5 Simulator System.  https://www.gem5.org
gem5 is copyrighted software; use the --copyright option for details.

gem5 version 22.1.0.0
gem5 compiled Jun 19 2024 20:43:50
gem5 started Jun 24 2024 20:44:54
gem5 executing on ECE4700Jgem5-9, pid 22462
command line: build/RISCV/gem5.opt configs/example/se.py --param 'system.cpu[0].workload[:].release="99.99.99"' --cmd=lab4/part2_test --cpu-type=RiscvO3CPU --l1d_size=1kB --l1i_size=1kB --l2_size=16kB --l1d_assoc=8 --bp-type=TournamentBP --caches --l2cache

**** REAL SIMULATION ****
warn: The `get_runtime_isa` function is deprecated. Please migrate away from using this function.
warn: The `get_runtime_isa` function is deprecated. Please migrate away from using this function.
warn: No dot file generated. Please install pydot to generate the dot file and pdf.
build/RISCV/sim/simulate.cc:192: info: Entering event queue @ 0.  Starting simulation...
build/RISCV/sim/syscall_emul.cc:86: warn: ignoring syscall set_robust_list(...)
      (further warnings will be suppressed)
build/RISCV/sim/mem_state.cc:443: info: Increasing stack size by one page.
build/RISCV/sim/syscall_emul.cc:74: warn: ignoring syscall mprotect(...)
Exiting @ tick 69921000 because exiting with last active thread context


Results for --cpu-type=RiscvO3CPU --l1d_size=1kB --l1i_size=1kB --l2_size=16kB --l1d_assoc=8 --bp-type=LTAGE
Global frequency set at 1000000000000 ticks per second
build/RISCV/mem/dram_interface.cc:692: warn: DRAM device capacity (8192 Mbytes) does not match the address range assigned (512 Mbytes)
0: system.remote_gdb: listening for remote gdb on port 7000
gem5 Simulator System.  https://www.gem5.org
gem5 is copyrighted software; use the --copyright option for details.

gem5 version 22.1.0.0
gem5 compiled Jun 19 2024 20:43:50
gem5 started Jun 24 2024 20:44:55
gem5 executing on ECE4700Jgem5-9, pid 22463
command line: build/RISCV/gem5.opt configs/example/se.py --param 'system.cpu[0].workload[:].release="99.99.99"' --cmd=lab4/part2_test --cpu-type=RiscvO3CPU --l1d_size=1kB --l1i_size=1kB --l2_size=16kB --l1d_assoc=8 --bp-type=LTAGE --caches --l2cache

**** REAL SIMULATION ****
warn: The `get_runtime_isa` function is deprecated. Please migrate away from using this function.
warn: The `get_runtime_isa` function is deprecated. Please migrate away from using this function.
warn: No dot file generated. Please install pydot to generate the dot file and pdf.
build/RISCV/sim/simulate.cc:192: info: Entering event queue @ 0.  Starting simulation...
build/RISCV/sim/syscall_emul.cc:86: warn: ignoring syscall set_robust_list(...)
      (further warnings will be suppressed)
build/RISCV/sim/mem_state.cc:443: info: Increasing stack size by one page.
build/RISCV/sim/syscall_emul.cc:74: warn: ignoring syscall mprotect(...)
Exiting @ tick 74401000 because exiting with last active thread context


Results for --cpu-type=RiscvO3CPU --l1d_size=1kB --l1i_size=1kB --l2_size=32kB --l1d_assoc=1 --bp-type=TournamentBP
Global frequency set at 1000000000000 ticks per second
build/RISCV/mem/dram_interface.cc:692: warn: DRAM device capacity (8192 Mbytes) does not match the address range assigned (512 Mbytes)
0: system.remote_gdb: listening for remote gdb on port 7000
gem5 Simulator System.  https://www.gem5.org
gem5 is copyrighted software; use the --copyright option for details.

gem5 version 22.1.0.0
gem5 compiled Jun 19 2024 20:43:50
gem5 started Jun 24 2024 20:44:57
gem5 executing on ECE4700Jgem5-9, pid 22465
command line: build/RISCV/gem5.opt configs/example/se.py --param 'system.cpu[0].workload[:].release="99.99.99"' --cmd=lab4/part2_test --cpu-type=RiscvO3CPU --l1d_size=1kB --l1i_size=1kB --l2_size=32kB --l1d_assoc=1 --bp-type=TournamentBP --caches --l2cache

**** REAL SIMULATION ****
warn: The `get_runtime_isa` function is deprecated. Please migrate away from using this function.
warn: The `get_runtime_isa` function is deprecated. Please migrate away from using this function.
warn: No dot file generated. Please install pydot to generate the dot file and pdf.
build/RISCV/sim/simulate.cc:192: info: Entering event queue @ 0.  Starting simulation...
build/RISCV/sim/syscall_emul.cc:86: warn: ignoring syscall set_robust_list(...)
      (further warnings will be suppressed)
build/RISCV/sim/mem_state.cc:443: info: Increasing stack size by one page.
build/RISCV/sim/syscall_emul.cc:74: warn: ignoring syscall mprotect(...)
Exiting @ tick 80482000 because exiting with last active thread context


Results for --cpu-type=RiscvO3CPU --l1d_size=1kB --l1i_size=1kB --l2_size=32kB --l1d_assoc=1 --bp-type=LTAGE
Global frequency set at 1000000000000 ticks per second
build/RISCV/mem/dram_interface.cc:692: warn: DRAM device capacity (8192 Mbytes) does not match the address range assigned (512 Mbytes)
0: system.remote_gdb: listening for remote gdb on port 7000
gem5 Simulator System.  https://www.gem5.org
gem5 is copyrighted software; use the --copyright option for details.

gem5 version 22.1.0.0
gem5 compiled Jun 19 2024 20:43:50
gem5 started Jun 24 2024 20:44:58
gem5 executing on ECE4700Jgem5-9, pid 22466
command line: build/RISCV/gem5.opt configs/example/se.py --param 'system.cpu[0].workload[:].release="99.99.99"' --cmd=lab4/part2_test --cpu-type=RiscvO3CPU --l1d_size=1kB --l1i_size=1kB --l2_size=32kB --l1d_assoc=1 --bp-type=LTAGE --caches --l2cache

**** REAL SIMULATION ****
warn: The `get_runtime_isa` function is deprecated. Please migrate away from using this function.
warn: The `get_runtime_isa` function is deprecated. Please migrate away from using this function.
warn: No dot file generated. Please install pydot to generate the dot file and pdf.
build/RISCV/sim/simulate.cc:192: info: Entering event queue @ 0.  Starting simulation...
build/RISCV/sim/syscall_emul.cc:86: warn: ignoring syscall set_robust_list(...)
      (further warnings will be suppressed)
build/RISCV/sim/mem_state.cc:443: info: Increasing stack size by one page.
build/RISCV/sim/syscall_emul.cc:74: warn: ignoring syscall mprotect(...)
Exiting @ tick 86049000 because exiting with last active thread context


Results for --cpu-type=RiscvO3CPU --l1d_size=1kB --l1i_size=1kB --l2_size=32kB --l1d_assoc=2 --bp-type=TournamentBP
Global frequency set at 1000000000000 ticks per second
build/RISCV/mem/dram_interface.cc:692: warn: DRAM device capacity (8192 Mbytes) does not match the address range assigned (512 Mbytes)
0: system.remote_gdb: listening for remote gdb on port 7000
gem5 Simulator System.  https://www.gem5.org
gem5 is copyrighted software; use the --copyright option for details.

gem5 version 22.1.0.0
gem5 compiled Jun 19 2024 20:43:50
gem5 started Jun 24 2024 20:44:59
gem5 executing on ECE4700Jgem5-9, pid 22467
command line: build/RISCV/gem5.opt configs/example/se.py --param 'system.cpu[0].workload[:].release="99.99.99"' --cmd=lab4/part2_test --cpu-type=RiscvO3CPU --l1d_size=1kB --l1i_size=1kB --l2_size=32kB --l1d_assoc=2 --bp-type=TournamentBP --caches --l2cache

**** REAL SIMULATION ****
warn: The `get_runtime_isa` function is deprecated. Please migrate away from using this function.
warn: The `get_runtime_isa` function is deprecated. Please migrate away from using this function.
warn: No dot file generated. Please install pydot to generate the dot file and pdf.
build/RISCV/sim/simulate.cc:192: info: Entering event queue @ 0.  Starting simulation...
build/RISCV/sim/syscall_emul.cc:86: warn: ignoring syscall set_robust_list(...)
      (further warnings will be suppressed)
build/RISCV/sim/mem_state.cc:443: info: Increasing stack size by one page.
build/RISCV/sim/syscall_emul.cc:74: warn: ignoring syscall mprotect(...)
Exiting @ tick 71003000 because exiting with last active thread context


Results for --cpu-type=RiscvO3CPU --l1d_size=1kB --l1i_size=1kB --l2_size=32kB --l1d_assoc=2 --bp-type=LTAGE
Global frequency set at 1000000000000 ticks per second
build/RISCV/mem/dram_interface.cc:692: warn: DRAM device capacity (8192 Mbytes) does not match the address range assigned (512 Mbytes)
0: system.remote_gdb: listening for remote gdb on port 7000
gem5 Simulator System.  https://www.gem5.org
gem5 is copyrighted software; use the --copyright option for details.

gem5 version 22.1.0.0
gem5 compiled Jun 19 2024 20:43:50
gem5 started Jun 24 2024 20:45:00
gem5 executing on ECE4700Jgem5-9, pid 22468
command line: build/RISCV/gem5.opt configs/example/se.py --param 'system.cpu[0].workload[:].release="99.99.99"' --cmd=lab4/part2_test --cpu-type=RiscvO3CPU --l1d_size=1kB --l1i_size=1kB --l2_size=32kB --l1d_assoc=2 --bp-type=LTAGE --caches --l2cache

**** REAL SIMULATION ****
warn: The `get_runtime_isa` function is deprecated. Please migrate away from using this function.
warn: The `get_runtime_isa` function is deprecated. Please migrate away from using this function.
warn: No dot file generated. Please install pydot to generate the dot file and pdf.
build/RISCV/sim/simulate.cc:192: info: Entering event queue @ 0.  Starting simulation...
build/RISCV/sim/syscall_emul.cc:86: warn: ignoring syscall set_robust_list(...)
      (further warnings will be suppressed)
build/RISCV/sim/mem_state.cc:443: info: Increasing stack size by one page.
build/RISCV/sim/syscall_emul.cc:74: warn: ignoring syscall mprotect(...)
Exiting @ tick 75343000 because exiting with last active thread context


Results for --cpu-type=RiscvO3CPU --l1d_size=1kB --l1i_size=1kB --l2_size=32kB --l1d_assoc=4 --bp-type=TournamentBP
Global frequency set at 1000000000000 ticks per second
build/RISCV/mem/dram_interface.cc:692: warn: DRAM device capacity (8192 Mbytes) does not match the address range assigned (512 Mbytes)
0: system.remote_gdb: listening for remote gdb on port 7000
gem5 Simulator System.  https://www.gem5.org
gem5 is copyrighted software; use the --copyright option for details.

gem5 version 22.1.0.0
gem5 compiled Jun 19 2024 20:43:50
gem5 started Jun 24 2024 20:45:02
gem5 executing on ECE4700Jgem5-9, pid 22471
command line: build/RISCV/gem5.opt configs/example/se.py --param 'system.cpu[0].workload[:].release="99.99.99"' --cmd=lab4/part2_test --cpu-type=RiscvO3CPU --l1d_size=1kB --l1i_size=1kB --l2_size=32kB --l1d_assoc=4 --bp-type=TournamentBP --caches --l2cache

**** REAL SIMULATION ****
warn: The `get_runtime_isa` function is deprecated. Please migrate away from using this function.
warn: The `get_runtime_isa` function is deprecated. Please migrate away from using this function.
warn: No dot file generated. Please install pydot to generate the dot file and pdf.
build/RISCV/sim/simulate.cc:192: info: Entering event queue @ 0.  Starting simulation...
build/RISCV/sim/syscall_emul.cc:86: warn: ignoring syscall set_robust_list(...)
      (further warnings will be suppressed)
build/RISCV/sim/mem_state.cc:443: info: Increasing stack size by one page.
build/RISCV/sim/syscall_emul.cc:74: warn: ignoring syscall mprotect(...)
Exiting @ tick 68759000 because exiting with last active thread context


Results for --cpu-type=RiscvO3CPU --l1d_size=1kB --l1i_size=1kB --l2_size=32kB --l1d_assoc=4 --bp-type=LTAGE
Global frequency set at 1000000000000 ticks per second
build/RISCV/mem/dram_interface.cc:692: warn: DRAM device capacity (8192 Mbytes) does not match the address range assigned (512 Mbytes)
0: system.remote_gdb: listening for remote gdb on port 7000
gem5 Simulator System.  https://www.gem5.org
gem5 is copyrighted software; use the --copyright option for details.

gem5 version 22.1.0.0
gem5 compiled Jun 19 2024 20:43:50
gem5 started Jun 24 2024 20:45:03
gem5 executing on ECE4700Jgem5-9, pid 22472
command line: build/RISCV/gem5.opt configs/example/se.py --param 'system.cpu[0].workload[:].release="99.99.99"' --cmd=lab4/part2_test --cpu-type=RiscvO3CPU --l1d_size=1kB --l1i_size=1kB --l2_size=32kB --l1d_assoc=4 --bp-type=LTAGE --caches --l2cache

**** REAL SIMULATION ****
warn: The `get_runtime_isa` function is deprecated. Please migrate away from using this function.
warn: The `get_runtime_isa` function is deprecated. Please migrate away from using this function.
warn: No dot file generated. Please install pydot to generate the dot file and pdf.
build/RISCV/sim/simulate.cc:192: info: Entering event queue @ 0.  Starting simulation...
build/RISCV/sim/syscall_emul.cc:86: warn: ignoring syscall set_robust_list(...)
      (further warnings will be suppressed)
build/RISCV/sim/mem_state.cc:443: info: Increasing stack size by one page.
build/RISCV/sim/syscall_emul.cc:74: warn: ignoring syscall mprotect(...)
Exiting @ tick 73271000 because exiting with last active thread context


Results for --cpu-type=RiscvO3CPU --l1d_size=1kB --l1i_size=1kB --l2_size=32kB --l1d_assoc=8 --bp-type=TournamentBP
Global frequency set at 1000000000000 ticks per second
build/RISCV/mem/dram_interface.cc:692: warn: DRAM device capacity (8192 Mbytes) does not match the address range assigned (512 Mbytes)
0: system.remote_gdb: listening for remote gdb on port 7000
gem5 Simulator System.  https://www.gem5.org
gem5 is copyrighted software; use the --copyright option for details.

gem5 version 22.1.0.0
gem5 compiled Jun 19 2024 20:43:50
gem5 started Jun 24 2024 20:45:04
gem5 executing on ECE4700Jgem5-9, pid 22473
command line: build/RISCV/gem5.opt configs/example/se.py --param 'system.cpu[0].workload[:].release="99.99.99"' --cmd=lab4/part2_test --cpu-type=RiscvO3CPU --l1d_size=1kB --l1i_size=1kB --l2_size=32kB --l1d_assoc=8 --bp-type=TournamentBP --caches --l2cache

**** REAL SIMULATION ****
warn: The `get_runtime_isa` function is deprecated. Please migrate away from using this function.
warn: The `get_runtime_isa` function is deprecated. Please migrate away from using this function.
warn: No dot file generated. Please install pydot to generate the dot file and pdf.
build/RISCV/sim/simulate.cc:192: info: Entering event queue @ 0.  Starting simulation...
build/RISCV/sim/syscall_emul.cc:86: warn: ignoring syscall set_robust_list(...)
      (further warnings will be suppressed)
build/RISCV/sim/mem_state.cc:443: info: Increasing stack size by one page.
build/RISCV/sim/syscall_emul.cc:74: warn: ignoring syscall mprotect(...)
Exiting @ tick 68771000 because exiting with last active thread context


Results for --cpu-type=RiscvO3CPU --l1d_size=1kB --l1i_size=1kB --l2_size=32kB --l1d_assoc=8 --bp-type=LTAGE
Global frequency set at 1000000000000 ticks per second
build/RISCV/mem/dram_interface.cc:692: warn: DRAM device capacity (8192 Mbytes) does not match the address range assigned (512 Mbytes)
0: system.remote_gdb: listening for remote gdb on port 7000
gem5 Simulator System.  https://www.gem5.org
gem5 is copyrighted software; use the --copyright option for details.

gem5 version 22.1.0.0
gem5 compiled Jun 19 2024 20:43:50
gem5 started Jun 24 2024 20:45:06
gem5 executing on ECE4700Jgem5-9, pid 22475
command line: build/RISCV/gem5.opt configs/example/se.py --param 'system.cpu[0].workload[:].release="99.99.99"' --cmd=lab4/part2_test --cpu-type=RiscvO3CPU --l1d_size=1kB --l1i_size=1kB --l2_size=32kB --l1d_assoc=8 --bp-type=LTAGE --caches --l2cache

**** REAL SIMULATION ****
warn: The `get_runtime_isa` function is deprecated. Please migrate away from using this function.
warn: The `get_runtime_isa` function is deprecated. Please migrate away from using this function.
warn: No dot file generated. Please install pydot to generate the dot file and pdf.
build/RISCV/sim/simulate.cc:192: info: Entering event queue @ 0.  Starting simulation...
build/RISCV/sim/syscall_emul.cc:86: warn: ignoring syscall set_robust_list(...)
      (further warnings will be suppressed)
build/RISCV/sim/mem_state.cc:443: info: Increasing stack size by one page.
build/RISCV/sim/syscall_emul.cc:74: warn: ignoring syscall mprotect(...)
Exiting @ tick 73706000 because exiting with last active thread context


Results for --cpu-type=RiscvO3CPU --l1d_size=1kB --l1i_size=1kB --l2_size=16kB --l1d_assoc=1 --bp-type=TournamentBP
Global frequency set at 1000000000000 ticks per second
build/RISCV/mem/dram_interface.cc:692: warn: DRAM device capacity (8192 Mbytes) does not match the address range assigned (512 Mbytes)
0: system.remote_gdb: listening for remote gdb on port 7000
gem5 Simulator System.  https://www.gem5.org
gem5 is copyrighted software; use the --copyright option for details.

gem5 version 22.1.0.0
gem5 compiled Jun 19 2024 20:43:50
gem5 started Jun 24 2024 20:45:07
gem5 executing on ECE4700Jgem5-9, pid 22476
command line: build/RISCV/gem5.opt configs/example/se.py --param 'system.cpu[0].workload[:].release="99.99.99"' --cmd=lab4/part2_test --cpu-type=RiscvO3CPU --l1d_size=1kB --l1i_size=1kB --l2_size=16kB --l1d_assoc=1 --bp-type=TournamentBP --caches --l2cache

**** REAL SIMULATION ****
warn: The `get_runtime_isa` function is deprecated. Please migrate away from using this function.
warn: The `get_runtime_isa` function is deprecated. Please migrate away from using this function.
warn: No dot file generated. Please install pydot to generate the dot file and pdf.
build/RISCV/sim/simulate.cc:192: info: Entering event queue @ 0.  Starting simulation...
build/RISCV/sim/syscall_emul.cc:86: warn: ignoring syscall set_robust_list(...)
      (further warnings will be suppressed)
build/RISCV/sim/mem_state.cc:443: info: Increasing stack size by one page.
build/RISCV/sim/syscall_emul.cc:74: warn: ignoring syscall mprotect(...)
Exiting @ tick 81184000 because exiting with last active thread context


Results for --cpu-type=RiscvO3CPU --l1d_size=1kB --l1i_size=1kB --l2_size=16kB --l1d_assoc=1 --bp-type=LTAGE
Global frequency set at 1000000000000 ticks per second
build/RISCV/mem/dram_interface.cc:692: warn: DRAM device capacity (8192 Mbytes) does not match the address range assigned (512 Mbytes)
0: system.remote_gdb: listening for remote gdb on port 7000
gem5 Simulator System.  https://www.gem5.org
gem5 is copyrighted software; use the --copyright option for details.

gem5 version 22.1.0.0
gem5 compiled Jun 19 2024 20:43:50
gem5 started Jun 24 2024 20:45:08
gem5 executing on ECE4700Jgem5-9, pid 22477
command line: build/RISCV/gem5.opt configs/example/se.py --param 'system.cpu[0].workload[:].release="99.99.99"' --cmd=lab4/part2_test --cpu-type=RiscvO3CPU --l1d_size=1kB --l1i_size=1kB --l2_size=16kB --l1d_assoc=1 --bp-type=LTAGE --caches --l2cache

**** REAL SIMULATION ****
warn: The `get_runtime_isa` function is deprecated. Please migrate away from using this function.
warn: The `get_runtime_isa` function is deprecated. Please migrate away from using this function.
warn: No dot file generated. Please install pydot to generate the dot file and pdf.
build/RISCV/sim/simulate.cc:192: info: Entering event queue @ 0.  Starting simulation...
build/RISCV/sim/syscall_emul.cc:86: warn: ignoring syscall set_robust_list(...)
      (further warnings will be suppressed)
build/RISCV/sim/mem_state.cc:443: info: Increasing stack size by one page.
build/RISCV/sim/syscall_emul.cc:74: warn: ignoring syscall mprotect(...)
Exiting @ tick 86799000 because exiting with last active thread context


Results for --cpu-type=RiscvO3CPU --l1d_size=1kB --l1i_size=1kB --l2_size=16kB --l1d_assoc=2 --bp-type=TournamentBP
Global frequency set at 1000000000000 ticks per second
build/RISCV/mem/dram_interface.cc:692: warn: DRAM device capacity (8192 Mbytes) does not match the address range assigned (512 Mbytes)
0: system.remote_gdb: listening for remote gdb on port 7000
gem5 Simulator System.  https://www.gem5.org
gem5 is copyrighted software; use the --copyright option for details.

gem5 version 22.1.0.0
gem5 compiled Jun 19 2024 20:43:50
gem5 started Jun 24 2024 20:45:10
gem5 executing on ECE4700Jgem5-9, pid 22478
command line: build/RISCV/gem5.opt configs/example/se.py --param 'system.cpu[0].workload[:].release="99.99.99"' --cmd=lab4/part2_test --cpu-type=RiscvO3CPU --l1d_size=1kB --l1i_size=1kB --l2_size=16kB --l1d_assoc=2 --bp-type=TournamentBP --caches --l2cache

**** REAL SIMULATION ****
warn: The `get_runtime_isa` function is deprecated. Please migrate away from using this function.
warn: The `get_runtime_isa` function is deprecated. Please migrate away from using this function.
warn: No dot file generated. Please install pydot to generate the dot file and pdf.
build/RISCV/sim/simulate.cc:192: info: Entering event queue @ 0.  Starting simulation...
build/RISCV/sim/syscall_emul.cc:86: warn: ignoring syscall set_robust_list(...)
      (further warnings will be suppressed)
build/RISCV/sim/mem_state.cc:443: info: Increasing stack size by one page.
build/RISCV/sim/syscall_emul.cc:74: warn: ignoring syscall mprotect(...)
Exiting @ tick 72066000 because exiting with last active thread context


Results for --cpu-type=RiscvO3CPU --l1d_size=1kB --l1i_size=1kB --l2_size=16kB --l1d_assoc=2 --bp-type=LTAGE
Global frequency set at 1000000000000 ticks per second
build/RISCV/mem/dram_interface.cc:692: warn: DRAM device capacity (8192 Mbytes) does not match the address range assigned (512 Mbytes)
0: system.remote_gdb: listening for remote gdb on port 7000
gem5 Simulator System.  https://www.gem5.org
gem5 is copyrighted software; use the --copyright option for details.

gem5 version 22.1.0.0
gem5 compiled Jun 19 2024 20:43:50
gem5 started Jun 24 2024 20:45:11
gem5 executing on ECE4700Jgem5-9, pid 22479
command line: build/RISCV/gem5.opt configs/example/se.py --param 'system.cpu[0].workload[:].release="99.99.99"' --cmd=lab4/part2_test --cpu-type=RiscvO3CPU --l1d_size=1kB --l1i_size=1kB --l2_size=16kB --l1d_assoc=2 --bp-type=LTAGE --caches --l2cache

**** REAL SIMULATION ****
warn: The `get_runtime_isa` function is deprecated. Please migrate away from using this function.
warn: The `get_runtime_isa` function is deprecated. Please migrate away from using this function.
warn: No dot file generated. Please install pydot to generate the dot file and pdf.
build/RISCV/sim/simulate.cc:192: info: Entering event queue @ 0.  Starting simulation...
build/RISCV/sim/syscall_emul.cc:86: warn: ignoring syscall set_robust_list(...)
      (further warnings will be suppressed)
build/RISCV/sim/mem_state.cc:443: info: Increasing stack size by one page.
build/RISCV/sim/syscall_emul.cc:74: warn: ignoring syscall mprotect(...)
Exiting @ tick 75971000 because exiting with last active thread context


Results for --cpu-type=RiscvO3CPU --l1d_size=1kB --l1i_size=1kB --l2_size=16kB --l1d_assoc=4 --bp-type=TournamentBP
Global frequency set at 1000000000000 ticks per second
build/RISCV/mem/dram_interface.cc:692: warn: DRAM device capacity (8192 Mbytes) does not match the address range assigned (512 Mbytes)
0: system.remote_gdb: listening for remote gdb on port 7000
gem5 Simulator System.  https://www.gem5.org
gem5 is copyrighted software; use the --copyright option for details.

gem5 version 22.1.0.0
gem5 compiled Jun 19 2024 20:43:50
gem5 started Jun 24 2024 20:45:12
gem5 executing on ECE4700Jgem5-9, pid 22480
command line: build/RISCV/gem5.opt configs/example/se.py --param 'system.cpu[0].workload[:].release="99.99.99"' --cmd=lab4/part2_test --cpu-type=RiscvO3CPU --l1d_size=1kB --l1i_size=1kB --l2_size=16kB --l1d_assoc=4 --bp-type=TournamentBP --caches --l2cache

**** REAL SIMULATION ****
warn: The `get_runtime_isa` function is deprecated. Please migrate away from using this function.
warn: The `get_runtime_isa` function is deprecated. Please migrate away from using this function.
warn: No dot file generated. Please install pydot to generate the dot file and pdf.
build/RISCV/sim/simulate.cc:192: info: Entering event queue @ 0.  Starting simulation...
build/RISCV/sim/syscall_emul.cc:86: warn: ignoring syscall set_robust_list(...)
      (further warnings will be suppressed)
build/RISCV/sim/mem_state.cc:443: info: Increasing stack size by one page.
build/RISCV/sim/syscall_emul.cc:74: warn: ignoring syscall mprotect(...)
Exiting @ tick 69861000 because exiting with last active thread context


Results for --cpu-type=RiscvO3CPU --l1d_size=1kB --l1i_size=1kB --l2_size=16kB --l1d_assoc=4 --bp-type=LTAGE
Global frequency set at 1000000000000 ticks per second
build/RISCV/mem/dram_interface.cc:692: warn: DRAM device capacity (8192 Mbytes) does not match the address range assigned (512 Mbytes)
0: system.remote_gdb: listening for remote gdb on port 7000
gem5 Simulator System.  https://www.gem5.org
gem5 is copyrighted software; use the --copyright option for details.

gem5 version 22.1.0.0
gem5 compiled Jun 19 2024 20:43:50
gem5 started Jun 24 2024 20:45:13
gem5 executing on ECE4700Jgem5-9, pid 22481
command line: build/RISCV/gem5.opt configs/example/se.py --param 'system.cpu[0].workload[:].release="99.99.99"' --cmd=lab4/part2_test --cpu-type=RiscvO3CPU --l1d_size=1kB --l1i_size=1kB --l2_size=16kB --l1d_assoc=4 --bp-type=LTAGE --caches --l2cache

**** REAL SIMULATION ****
warn: The `get_runtime_isa` function is deprecated. Please migrate away from using this function.
warn: The `get_runtime_isa` function is deprecated. Please migrate away from using this function.
warn: No dot file generated. Please install pydot to generate the dot file and pdf.
build/RISCV/sim/simulate.cc:192: info: Entering event queue @ 0.  Starting simulation...
build/RISCV/sim/syscall_emul.cc:86: warn: ignoring syscall set_robust_list(...)
      (further warnings will be suppressed)
build/RISCV/sim/mem_state.cc:443: info: Increasing stack size by one page.
build/RISCV/sim/syscall_emul.cc:74: warn: ignoring syscall mprotect(...)
Exiting @ tick 73884000 because exiting with last active thread context


Results for --cpu-type=RiscvO3CPU --l1d_size=1kB --l1i_size=1kB --l2_size=16kB --l1d_assoc=8 --bp-type=TournamentBP
Global frequency set at 1000000000000 ticks per second
build/RISCV/mem/dram_interface.cc:692: warn: DRAM device capacity (8192 Mbytes) does not match the address range assigned (512 Mbytes)
0: system.remote_gdb: listening for remote gdb on port 7000
gem5 Simulator System.  https://www.gem5.org
gem5 is copyrighted software; use the --copyright option for details.

gem5 version 22.1.0.0
gem5 compiled Jun 19 2024 20:43:50
gem5 started Jun 24 2024 20:45:15
gem5 executing on ECE4700Jgem5-9, pid 22482
command line: build/RISCV/gem5.opt configs/example/se.py --param 'system.cpu[0].workload[:].release="99.99.99"' --cmd=lab4/part2_test --cpu-type=RiscvO3CPU --l1d_size=1kB --l1i_size=1kB --l2_size=16kB --l1d_assoc=8 --bp-type=TournamentBP --caches --l2cache

**** REAL SIMULATION ****
warn: The `get_runtime_isa` function is deprecated. Please migrate away from using this function.
warn: The `get_runtime_isa` function is deprecated. Please migrate away from using this function.
warn: No dot file generated. Please install pydot to generate the dot file and pdf.
build/RISCV/sim/simulate.cc:192: info: Entering event queue @ 0.  Starting simulation...
build/RISCV/sim/syscall_emul.cc:86: warn: ignoring syscall set_robust_list(...)
      (further warnings will be suppressed)
build/RISCV/sim/mem_state.cc:443: info: Increasing stack size by one page.
build/RISCV/sim/syscall_emul.cc:74: warn: ignoring syscall mprotect(...)
Exiting @ tick 69921000 because exiting with last active thread context


Results for --cpu-type=RiscvO3CPU --l1d_size=1kB --l1i_size=1kB --l2_size=16kB --l1d_assoc=8 --bp-type=LTAGE
Global frequency set at 1000000000000 ticks per second
build/RISCV/mem/dram_interface.cc:692: warn: DRAM device capacity (8192 Mbytes) does not match the address range assigned (512 Mbytes)
0: system.remote_gdb: listening for remote gdb on port 7000
gem5 Simulator System.  https://www.gem5.org
gem5 is copyrighted software; use the --copyright option for details.

gem5 version 22.1.0.0
gem5 compiled Jun 19 2024 20:43:50
gem5 started Jun 24 2024 20:45:16
gem5 executing on ECE4700Jgem5-9, pid 22484
command line: build/RISCV/gem5.opt configs/example/se.py --param 'system.cpu[0].workload[:].release="99.99.99"' --cmd=lab4/part2_test --cpu-type=RiscvO3CPU --l1d_size=1kB --l1i_size=1kB --l2_size=16kB --l1d_assoc=8 --bp-type=LTAGE --caches --l2cache

**** REAL SIMULATION ****
warn: The `get_runtime_isa` function is deprecated. Please migrate away from using this function.
warn: The `get_runtime_isa` function is deprecated. Please migrate away from using this function.
warn: No dot file generated. Please install pydot to generate the dot file and pdf.
build/RISCV/sim/simulate.cc:192: info: Entering event queue @ 0.  Starting simulation...
build/RISCV/sim/syscall_emul.cc:86: warn: ignoring syscall set_robust_list(...)
      (further warnings will be suppressed)
build/RISCV/sim/mem_state.cc:443: info: Increasing stack size by one page.
build/RISCV/sim/syscall_emul.cc:74: warn: ignoring syscall mprotect(...)
Exiting @ tick 74401000 because exiting with last active thread context


Results for --cpu-type=RiscvO3CPU --l1d_size=1kB --l1i_size=1kB --l2_size=32kB --l1d_assoc=1 --bp-type=TournamentBP
Global frequency set at 1000000000000 ticks per second
build/RISCV/mem/dram_interface.cc:692: warn: DRAM device capacity (8192 Mbytes) does not match the address range assigned (512 Mbytes)
0: system.remote_gdb: listening for remote gdb on port 7000
gem5 Simulator System.  https://www.gem5.org
gem5 is copyrighted software; use the --copyright option for details.

gem5 version 22.1.0.0
gem5 compiled Jun 19 2024 20:43:50
gem5 started Jun 24 2024 20:45:17
gem5 executing on ECE4700Jgem5-9, pid 22485
command line: build/RISCV/gem5.opt configs/example/se.py --param 'system.cpu[0].workload[:].release="99.99.99"' --cmd=lab4/part2_test --cpu-type=RiscvO3CPU --l1d_size=1kB --l1i_size=1kB --l2_size=32kB --l1d_assoc=1 --bp-type=TournamentBP --caches --l2cache

**** REAL SIMULATION ****
warn: The `get_runtime_isa` function is deprecated. Please migrate away from using this function.
warn: The `get_runtime_isa` function is deprecated. Please migrate away from using this function.
warn: No dot file generated. Please install pydot to generate the dot file and pdf.
build/RISCV/sim/simulate.cc:192: info: Entering event queue @ 0.  Starting simulation...
build/RISCV/sim/syscall_emul.cc:86: warn: ignoring syscall set_robust_list(...)
      (further warnings will be suppressed)
build/RISCV/sim/mem_state.cc:443: info: Increasing stack size by one page.
build/RISCV/sim/syscall_emul.cc:74: warn: ignoring syscall mprotect(...)
Exiting @ tick 80482000 because exiting with last active thread context


Results for --cpu-type=RiscvO3CPU --l1d_size=1kB --l1i_size=1kB --l2_size=32kB --l1d_assoc=1 --bp-type=LTAGE
Global frequency set at 1000000000000 ticks per second
build/RISCV/mem/dram_interface.cc:692: warn: DRAM device capacity (8192 Mbytes) does not match the address range assigned (512 Mbytes)
0: system.remote_gdb: listening for remote gdb on port 7000
gem5 Simulator System.  https://www.gem5.org
gem5 is copyrighted software; use the --copyright option for details.

gem5 version 22.1.0.0
gem5 compiled Jun 19 2024 20:43:50
gem5 started Jun 24 2024 20:45:18
gem5 executing on ECE4700Jgem5-9, pid 22486
command line: build/RISCV/gem5.opt configs/example/se.py --param 'system.cpu[0].workload[:].release="99.99.99"' --cmd=lab4/part2_test --cpu-type=RiscvO3CPU --l1d_size=1kB --l1i_size=1kB --l2_size=32kB --l1d_assoc=1 --bp-type=LTAGE --caches --l2cache

**** REAL SIMULATION ****
warn: The `get_runtime_isa` function is deprecated. Please migrate away from using this function.
warn: The `get_runtime_isa` function is deprecated. Please migrate away from using this function.
warn: No dot file generated. Please install pydot to generate the dot file and pdf.
build/RISCV/sim/simulate.cc:192: info: Entering event queue @ 0.  Starting simulation...
build/RISCV/sim/syscall_emul.cc:86: warn: ignoring syscall set_robust_list(...)
      (further warnings will be suppressed)
build/RISCV/sim/mem_state.cc:443: info: Increasing stack size by one page.
build/RISCV/sim/syscall_emul.cc:74: warn: ignoring syscall mprotect(...)
Exiting @ tick 86049000 because exiting with last active thread context


Results for --cpu-type=RiscvO3CPU --l1d_size=1kB --l1i_size=1kB --l2_size=32kB --l1d_assoc=2 --bp-type=TournamentBP
Global frequency set at 1000000000000 ticks per second
build/RISCV/mem/dram_interface.cc:692: warn: DRAM device capacity (8192 Mbytes) does not match the address range assigned (512 Mbytes)
0: system.remote_gdb: listening for remote gdb on port 7000
gem5 Simulator System.  https://www.gem5.org
gem5 is copyrighted software; use the --copyright option for details.

gem5 version 22.1.0.0
gem5 compiled Jun 19 2024 20:43:50
gem5 started Jun 24 2024 20:45:20
gem5 executing on ECE4700Jgem5-9, pid 22487
command line: build/RISCV/gem5.opt configs/example/se.py --param 'system.cpu[0].workload[:].release="99.99.99"' --cmd=lab4/part2_test --cpu-type=RiscvO3CPU --l1d_size=1kB --l1i_size=1kB --l2_size=32kB --l1d_assoc=2 --bp-type=TournamentBP --caches --l2cache

**** REAL SIMULATION ****
warn: The `get_runtime_isa` function is deprecated. Please migrate away from using this function.
warn: The `get_runtime_isa` function is deprecated. Please migrate away from using this function.
warn: No dot file generated. Please install pydot to generate the dot file and pdf.
build/RISCV/sim/simulate.cc:192: info: Entering event queue @ 0.  Starting simulation...
build/RISCV/sim/syscall_emul.cc:86: warn: ignoring syscall set_robust_list(...)
      (further warnings will be suppressed)
build/RISCV/sim/mem_state.cc:443: info: Increasing stack size by one page.
build/RISCV/sim/syscall_emul.cc:74: warn: ignoring syscall mprotect(...)
Exiting @ tick 71003000 because exiting with last active thread context


Results for --cpu-type=RiscvO3CPU --l1d_size=1kB --l1i_size=1kB --l2_size=32kB --l1d_assoc=2 --bp-type=LTAGE
Global frequency set at 1000000000000 ticks per second
build/RISCV/mem/dram_interface.cc:692: warn: DRAM device capacity (8192 Mbytes) does not match the address range assigned (512 Mbytes)
0: system.remote_gdb: listening for remote gdb on port 7000
gem5 Simulator System.  https://www.gem5.org
gem5 is copyrighted software; use the --copyright option for details.

gem5 version 22.1.0.0
gem5 compiled Jun 19 2024 20:43:50
gem5 started Jun 24 2024 20:45:21
gem5 executing on ECE4700Jgem5-9, pid 22488
command line: build/RISCV/gem5.opt configs/example/se.py --param 'system.cpu[0].workload[:].release="99.99.99"' --cmd=lab4/part2_test --cpu-type=RiscvO3CPU --l1d_size=1kB --l1i_size=1kB --l2_size=32kB --l1d_assoc=2 --bp-type=LTAGE --caches --l2cache

**** REAL SIMULATION ****
warn: The `get_runtime_isa` function is deprecated. Please migrate away from using this function.
warn: The `get_runtime_isa` function is deprecated. Please migrate away from using this function.
warn: No dot file generated. Please install pydot to generate the dot file and pdf.
build/RISCV/sim/simulate.cc:192: info: Entering event queue @ 0.  Starting simulation...
build/RISCV/sim/syscall_emul.cc:86: warn: ignoring syscall set_robust_list(...)
      (further warnings will be suppressed)
build/RISCV/sim/mem_state.cc:443: info: Increasing stack size by one page.
build/RISCV/sim/syscall_emul.cc:74: warn: ignoring syscall mprotect(...)
Exiting @ tick 75343000 because exiting with last active thread context


Results for --cpu-type=RiscvO3CPU --l1d_size=1kB --l1i_size=1kB --l2_size=32kB --l1d_assoc=4 --bp-type=TournamentBP
Global frequency set at 1000000000000 ticks per second
build/RISCV/mem/dram_interface.cc:692: warn: DRAM device capacity (8192 Mbytes) does not match the address range assigned (512 Mbytes)
0: system.remote_gdb: listening for remote gdb on port 7000
gem5 Simulator System.  https://www.gem5.org
gem5 is copyrighted software; use the --copyright option for details.

gem5 version 22.1.0.0
gem5 compiled Jun 19 2024 20:43:50
gem5 started Jun 24 2024 20:45:22
gem5 executing on ECE4700Jgem5-9, pid 22489
command line: build/RISCV/gem5.opt configs/example/se.py --param 'system.cpu[0].workload[:].release="99.99.99"' --cmd=lab4/part2_test --cpu-type=RiscvO3CPU --l1d_size=1kB --l1i_size=1kB --l2_size=32kB --l1d_assoc=4 --bp-type=TournamentBP --caches --l2cache

**** REAL SIMULATION ****
warn: The `get_runtime_isa` function is deprecated. Please migrate away from using this function.
warn: The `get_runtime_isa` function is deprecated. Please migrate away from using this function.
warn: No dot file generated. Please install pydot to generate the dot file and pdf.
build/RISCV/sim/simulate.cc:192: info: Entering event queue @ 0.  Starting simulation...
build/RISCV/sim/syscall_emul.cc:86: warn: ignoring syscall set_robust_list(...)
      (further warnings will be suppressed)
build/RISCV/sim/mem_state.cc:443: info: Increasing stack size by one page.
build/RISCV/sim/syscall_emul.cc:74: warn: ignoring syscall mprotect(...)
Exiting @ tick 68759000 because exiting with last active thread context


Results for --cpu-type=RiscvO3CPU --l1d_size=1kB --l1i_size=1kB --l2_size=32kB --l1d_assoc=4 --bp-type=LTAGE
Global frequency set at 1000000000000 ticks per second
build/RISCV/mem/dram_interface.cc:692: warn: DRAM device capacity (8192 Mbytes) does not match the address range assigned (512 Mbytes)
0: system.remote_gdb: listening for remote gdb on port 7000
gem5 Simulator System.  https://www.gem5.org
gem5 is copyrighted software; use the --copyright option for details.

gem5 version 22.1.0.0
gem5 compiled Jun 19 2024 20:43:50
gem5 started Jun 24 2024 20:45:24
gem5 executing on ECE4700Jgem5-9, pid 22490
command line: build/RISCV/gem5.opt configs/example/se.py --param 'system.cpu[0].workload[:].release="99.99.99"' --cmd=lab4/part2_test --cpu-type=RiscvO3CPU --l1d_size=1kB --l1i_size=1kB --l2_size=32kB --l1d_assoc=4 --bp-type=LTAGE --caches --l2cache

**** REAL SIMULATION ****
warn: The `get_runtime_isa` function is deprecated. Please migrate away from using this function.
warn: The `get_runtime_isa` function is deprecated. Please migrate away from using this function.
warn: No dot file generated. Please install pydot to generate the dot file and pdf.
build/RISCV/sim/simulate.cc:192: info: Entering event queue @ 0.  Starting simulation...
build/RISCV/sim/syscall_emul.cc:86: warn: ignoring syscall set_robust_list(...)
      (further warnings will be suppressed)
build/RISCV/sim/mem_state.cc:443: info: Increasing stack size by one page.
build/RISCV/sim/syscall_emul.cc:74: warn: ignoring syscall mprotect(...)
Exiting @ tick 73271000 because exiting with last active thread context


Results for --cpu-type=RiscvO3CPU --l1d_size=1kB --l1i_size=1kB --l2_size=32kB --l1d_assoc=8 --bp-type=TournamentBP
Global frequency set at 1000000000000 ticks per second
build/RISCV/mem/dram_interface.cc:692: warn: DRAM device capacity (8192 Mbytes) does not match the address range assigned (512 Mbytes)
0: system.remote_gdb: listening for remote gdb on port 7000
gem5 Simulator System.  https://www.gem5.org
gem5 is copyrighted software; use the --copyright option for details.

gem5 version 22.1.0.0
gem5 compiled Jun 19 2024 20:43:50
gem5 started Jun 24 2024 20:45:25
gem5 executing on ECE4700Jgem5-9, pid 22491
command line: build/RISCV/gem5.opt configs/example/se.py --param 'system.cpu[0].workload[:].release="99.99.99"' --cmd=lab4/part2_test --cpu-type=RiscvO3CPU --l1d_size=1kB --l1i_size=1kB --l2_size=32kB --l1d_assoc=8 --bp-type=TournamentBP --caches --l2cache

**** REAL SIMULATION ****
warn: The `get_runtime_isa` function is deprecated. Please migrate away from using this function.
warn: The `get_runtime_isa` function is deprecated. Please migrate away from using this function.
warn: No dot file generated. Please install pydot to generate the dot file and pdf.
build/RISCV/sim/simulate.cc:192: info: Entering event queue @ 0.  Starting simulation...
build/RISCV/sim/syscall_emul.cc:86: warn: ignoring syscall set_robust_list(...)
      (further warnings will be suppressed)
build/RISCV/sim/mem_state.cc:443: info: Increasing stack size by one page.
build/RISCV/sim/syscall_emul.cc:74: warn: ignoring syscall mprotect(...)
Exiting @ tick 68771000 because exiting with last active thread context


Results for --cpu-type=RiscvO3CPU --l1d_size=1kB --l1i_size=1kB --l2_size=32kB --l1d_assoc=8 --bp-type=LTAGE
Global frequency set at 1000000000000 ticks per second
build/RISCV/mem/dram_interface.cc:692: warn: DRAM device capacity (8192 Mbytes) does not match the address range assigned (512 Mbytes)
0: system.remote_gdb: listening for remote gdb on port 7000
gem5 Simulator System.  https://www.gem5.org
gem5 is copyrighted software; use the --copyright option for details.

gem5 version 22.1.0.0
gem5 compiled Jun 19 2024 20:43:50
gem5 started Jun 24 2024 20:45:26
gem5 executing on ECE4700Jgem5-9, pid 22493
command line: build/RISCV/gem5.opt configs/example/se.py --param 'system.cpu[0].workload[:].release="99.99.99"' --cmd=lab4/part2_test --cpu-type=RiscvO3CPU --l1d_size=1kB --l1i_size=1kB --l2_size=32kB --l1d_assoc=8 --bp-type=LTAGE --caches --l2cache

**** REAL SIMULATION ****
warn: The `get_runtime_isa` function is deprecated. Please migrate away from using this function.
warn: The `get_runtime_isa` function is deprecated. Please migrate away from using this function.
warn: No dot file generated. Please install pydot to generate the dot file and pdf.
build/RISCV/sim/simulate.cc:192: info: Entering event queue @ 0.  Starting simulation...
build/RISCV/sim/syscall_emul.cc:86: warn: ignoring syscall set_robust_list(...)
      (further warnings will be suppressed)
build/RISCV/sim/mem_state.cc:443: info: Increasing stack size by one page.
build/RISCV/sim/syscall_emul.cc:74: warn: ignoring syscall mprotect(...)
Exiting @ tick 73706000 because exiting with last active thread context


Results for --cpu-type=RiscvO3CPU --l1d_size=1kB --l1i_size=2kB --l2_size=16kB --l1d_assoc=1 --bp-type=TournamentBP
Global frequency set at 1000000000000 ticks per second
build/RISCV/mem/dram_interface.cc:692: warn: DRAM device capacity (8192 Mbytes) does not match the address range assigned (512 Mbytes)
0: system.remote_gdb: listening for remote gdb on port 7000
gem5 Simulator System.  https://www.gem5.org
gem5 is copyrighted software; use the --copyright option for details.

gem5 version 22.1.0.0
gem5 compiled Jun 19 2024 20:43:50
gem5 started Jun 24 2024 20:45:27
gem5 executing on ECE4700Jgem5-9, pid 22494
command line: build/RISCV/gem5.opt configs/example/se.py --param 'system.cpu[0].workload[:].release="99.99.99"' --cmd=lab4/part2_test --cpu-type=RiscvO3CPU --l1d_size=1kB --l1i_size=2kB --l2_size=16kB --l1d_assoc=1 --bp-type=TournamentBP --caches --l2cache

**** REAL SIMULATION ****
warn: The `get_runtime_isa` function is deprecated. Please migrate away from using this function.
warn: The `get_runtime_isa` function is deprecated. Please migrate away from using this function.
warn: No dot file generated. Please install pydot to generate the dot file and pdf.
build/RISCV/sim/simulate.cc:192: info: Entering event queue @ 0.  Starting simulation...
build/RISCV/sim/syscall_emul.cc:86: warn: ignoring syscall set_robust_list(...)
      (further warnings will be suppressed)
build/RISCV/sim/mem_state.cc:443: info: Increasing stack size by one page.
build/RISCV/sim/syscall_emul.cc:74: warn: ignoring syscall mprotect(...)
Exiting @ tick 80383000 because exiting with last active thread context


Results for --cpu-type=RiscvO3CPU --l1d_size=1kB --l1i_size=2kB --l2_size=16kB --l1d_assoc=1 --bp-type=LTAGE
Global frequency set at 1000000000000 ticks per second
build/RISCV/mem/dram_interface.cc:692: warn: DRAM device capacity (8192 Mbytes) does not match the address range assigned (512 Mbytes)
0: system.remote_gdb: listening for remote gdb on port 7000
gem5 Simulator System.  https://www.gem5.org
gem5 is copyrighted software; use the --copyright option for details.

gem5 version 22.1.0.0
gem5 compiled Jun 19 2024 20:43:50
gem5 started Jun 24 2024 20:45:29
gem5 executing on ECE4700Jgem5-9, pid 22495
command line: build/RISCV/gem5.opt configs/example/se.py --param 'system.cpu[0].workload[:].release="99.99.99"' --cmd=lab4/part2_test --cpu-type=RiscvO3CPU --l1d_size=1kB --l1i_size=2kB --l2_size=16kB --l1d_assoc=1 --bp-type=LTAGE --caches --l2cache

**** REAL SIMULATION ****
warn: The `get_runtime_isa` function is deprecated. Please migrate away from using this function.
warn: The `get_runtime_isa` function is deprecated. Please migrate away from using this function.
warn: No dot file generated. Please install pydot to generate the dot file and pdf.
build/RISCV/sim/simulate.cc:192: info: Entering event queue @ 0.  Starting simulation...
build/RISCV/sim/syscall_emul.cc:86: warn: ignoring syscall set_robust_list(...)
      (further warnings will be suppressed)
build/RISCV/sim/mem_state.cc:443: info: Increasing stack size by one page.
build/RISCV/sim/syscall_emul.cc:74: warn: ignoring syscall mprotect(...)
Exiting @ tick 86401000 because exiting with last active thread context


Results for --cpu-type=RiscvO3CPU --l1d_size=1kB --l1i_size=2kB --l2_size=16kB --l1d_assoc=2 --bp-type=TournamentBP
Global frequency set at 1000000000000 ticks per second
build/RISCV/mem/dram_interface.cc:692: warn: DRAM device capacity (8192 Mbytes) does not match the address range assigned (512 Mbytes)
0: system.remote_gdb: listening for remote gdb on port 7000
gem5 Simulator System.  https://www.gem5.org
gem5 is copyrighted software; use the --copyright option for details.

gem5 version 22.1.0.0
gem5 compiled Jun 19 2024 20:43:50
gem5 started Jun 24 2024 20:45:30
gem5 executing on ECE4700Jgem5-9, pid 22496
command line: build/RISCV/gem5.opt configs/example/se.py --param 'system.cpu[0].workload[:].release="99.99.99"' --cmd=lab4/part2_test --cpu-type=RiscvO3CPU --l1d_size=1kB --l1i_size=2kB --l2_size=16kB --l1d_assoc=2 --bp-type=TournamentBP --caches --l2cache

**** REAL SIMULATION ****
warn: The `get_runtime_isa` function is deprecated. Please migrate away from using this function.
warn: The `get_runtime_isa` function is deprecated. Please migrate away from using this function.
warn: No dot file generated. Please install pydot to generate the dot file and pdf.
build/RISCV/sim/simulate.cc:192: info: Entering event queue @ 0.  Starting simulation...
build/RISCV/sim/syscall_emul.cc:86: warn: ignoring syscall set_robust_list(...)
      (further warnings will be suppressed)
build/RISCV/sim/mem_state.cc:443: info: Increasing stack size by one page.
build/RISCV/sim/syscall_emul.cc:74: warn: ignoring syscall mprotect(...)
Exiting @ tick 70868000 because exiting with last active thread context


Results for --cpu-type=RiscvO3CPU --l1d_size=1kB --l1i_size=2kB --l2_size=16kB --l1d_assoc=2 --bp-type=LTAGE
Global frequency set at 1000000000000 ticks per second
build/RISCV/mem/dram_interface.cc:692: warn: DRAM device capacity (8192 Mbytes) does not match the address range assigned (512 Mbytes)
0: system.remote_gdb: listening for remote gdb on port 7000
gem5 Simulator System.  https://www.gem5.org
gem5 is copyrighted software; use the --copyright option for details.

gem5 version 22.1.0.0
gem5 compiled Jun 19 2024 20:43:50
gem5 started Jun 24 2024 20:45:31
gem5 executing on ECE4700Jgem5-9, pid 22497
command line: build/RISCV/gem5.opt configs/example/se.py --param 'system.cpu[0].workload[:].release="99.99.99"' --cmd=lab4/part2_test --cpu-type=RiscvO3CPU --l1d_size=1kB --l1i_size=2kB --l2_size=16kB --l1d_assoc=2 --bp-type=LTAGE --caches --l2cache

**** REAL SIMULATION ****
warn: The `get_runtime_isa` function is deprecated. Please migrate away from using this function.
warn: The `get_runtime_isa` function is deprecated. Please migrate away from using this function.
warn: No dot file generated. Please install pydot to generate the dot file and pdf.
build/RISCV/sim/simulate.cc:192: info: Entering event queue @ 0.  Starting simulation...
build/RISCV/sim/syscall_emul.cc:86: warn: ignoring syscall set_robust_list(...)
      (further warnings will be suppressed)
build/RISCV/sim/mem_state.cc:443: info: Increasing stack size by one page.
build/RISCV/sim/syscall_emul.cc:74: warn: ignoring syscall mprotect(...)
Exiting @ tick 75288000 because exiting with last active thread context


Results for --cpu-type=RiscvO3CPU --l1d_size=1kB --l1i_size=2kB --l2_size=16kB --l1d_assoc=4 --bp-type=TournamentBP
Global frequency set at 1000000000000 ticks per second
build/RISCV/mem/dram_interface.cc:692: warn: DRAM device capacity (8192 Mbytes) does not match the address range assigned (512 Mbytes)
0: system.remote_gdb: listening for remote gdb on port 7000
gem5 Simulator System.  https://www.gem5.org
gem5 is copyrighted software; use the --copyright option for details.

gem5 version 22.1.0.0
gem5 compiled Jun 19 2024 20:43:50
gem5 started Jun 24 2024 20:45:32
gem5 executing on ECE4700Jgem5-9, pid 22498
command line: build/RISCV/gem5.opt configs/example/se.py --param 'system.cpu[0].workload[:].release="99.99.99"' --cmd=lab4/part2_test --cpu-type=RiscvO3CPU --l1d_size=1kB --l1i_size=2kB --l2_size=16kB --l1d_assoc=4 --bp-type=TournamentBP --caches --l2cache

**** REAL SIMULATION ****
warn: The `get_runtime_isa` function is deprecated. Please migrate away from using this function.
warn: The `get_runtime_isa` function is deprecated. Please migrate away from using this function.
warn: No dot file generated. Please install pydot to generate the dot file and pdf.
build/RISCV/sim/simulate.cc:192: info: Entering event queue @ 0.  Starting simulation...
build/RISCV/sim/syscall_emul.cc:86: warn: ignoring syscall set_robust_list(...)
      (further warnings will be suppressed)
build/RISCV/sim/mem_state.cc:443: info: Increasing stack size by one page.
build/RISCV/sim/syscall_emul.cc:74: warn: ignoring syscall mprotect(...)
Exiting @ tick 68611000 because exiting with last active thread context


Results for --cpu-type=RiscvO3CPU --l1d_size=1kB --l1i_size=2kB --l2_size=16kB --l1d_assoc=4 --bp-type=LTAGE
Global frequency set at 1000000000000 ticks per second
build/RISCV/mem/dram_interface.cc:692: warn: DRAM device capacity (8192 Mbytes) does not match the address range assigned (512 Mbytes)
0: system.remote_gdb: listening for remote gdb on port 7000
gem5 Simulator System.  https://www.gem5.org
gem5 is copyrighted software; use the --copyright option for details.

gem5 version 22.1.0.0
gem5 compiled Jun 19 2024 20:43:50
gem5 started Jun 24 2024 20:45:34
gem5 executing on ECE4700Jgem5-9, pid 22499
command line: build/RISCV/gem5.opt configs/example/se.py --param 'system.cpu[0].workload[:].release="99.99.99"' --cmd=lab4/part2_test --cpu-type=RiscvO3CPU --l1d_size=1kB --l1i_size=2kB --l2_size=16kB --l1d_assoc=4 --bp-type=LTAGE --caches --l2cache

**** REAL SIMULATION ****
warn: The `get_runtime_isa` function is deprecated. Please migrate away from using this function.
warn: The `get_runtime_isa` function is deprecated. Please migrate away from using this function.
warn: No dot file generated. Please install pydot to generate the dot file and pdf.
build/RISCV/sim/simulate.cc:192: info: Entering event queue @ 0.  Starting simulation...
build/RISCV/sim/syscall_emul.cc:86: warn: ignoring syscall set_robust_list(...)
      (further warnings will be suppressed)
build/RISCV/sim/mem_state.cc:443: info: Increasing stack size by one page.
build/RISCV/sim/syscall_emul.cc:74: warn: ignoring syscall mprotect(...)
Exiting @ tick 73319000 because exiting with last active thread context


Results for --cpu-type=RiscvO3CPU --l1d_size=1kB --l1i_size=2kB --l2_size=16kB --l1d_assoc=8 --bp-type=TournamentBP
Global frequency set at 1000000000000 ticks per second
build/RISCV/mem/dram_interface.cc:692: warn: DRAM device capacity (8192 Mbytes) does not match the address range assigned (512 Mbytes)
0: system.remote_gdb: listening for remote gdb on port 7000
gem5 Simulator System.  https://www.gem5.org
gem5 is copyrighted software; use the --copyright option for details.

gem5 version 22.1.0.0
gem5 compiled Jun 19 2024 20:43:50
gem5 started Jun 24 2024 20:45:35
gem5 executing on ECE4700Jgem5-9, pid 22500
command line: build/RISCV/gem5.opt configs/example/se.py --param 'system.cpu[0].workload[:].release="99.99.99"' --cmd=lab4/part2_test --cpu-type=RiscvO3CPU --l1d_size=1kB --l1i_size=2kB --l2_size=16kB --l1d_assoc=8 --bp-type=TournamentBP --caches --l2cache

**** REAL SIMULATION ****
warn: The `get_runtime_isa` function is deprecated. Please migrate away from using this function.
warn: The `get_runtime_isa` function is deprecated. Please migrate away from using this function.
warn: No dot file generated. Please install pydot to generate the dot file and pdf.
build/RISCV/sim/simulate.cc:192: info: Entering event queue @ 0.  Starting simulation...
build/RISCV/sim/syscall_emul.cc:86: warn: ignoring syscall set_robust_list(...)
      (further warnings will be suppressed)
build/RISCV/sim/mem_state.cc:443: info: Increasing stack size by one page.
build/RISCV/sim/syscall_emul.cc:74: warn: ignoring syscall mprotect(...)
Exiting @ tick 68593000 because exiting with last active thread context


Results for --cpu-type=RiscvO3CPU --l1d_size=1kB --l1i_size=2kB --l2_size=16kB --l1d_assoc=8 --bp-type=LTAGE
Global frequency set at 1000000000000 ticks per second
build/RISCV/mem/dram_interface.cc:692: warn: DRAM device capacity (8192 Mbytes) does not match the address range assigned (512 Mbytes)
0: system.remote_gdb: listening for remote gdb on port 7000
gem5 Simulator System.  https://www.gem5.org
gem5 is copyrighted software; use the --copyright option for details.

gem5 version 22.1.0.0
gem5 compiled Jun 19 2024 20:43:50
gem5 started Jun 24 2024 20:45:36
gem5 executing on ECE4700Jgem5-9, pid 22502
command line: build/RISCV/gem5.opt configs/example/se.py --param 'system.cpu[0].workload[:].release="99.99.99"' --cmd=lab4/part2_test --cpu-type=RiscvO3CPU --l1d_size=1kB --l1i_size=2kB --l2_size=16kB --l1d_assoc=8 --bp-type=LTAGE --caches --l2cache

**** REAL SIMULATION ****
warn: The `get_runtime_isa` function is deprecated. Please migrate away from using this function.
warn: The `get_runtime_isa` function is deprecated. Please migrate away from using this function.
warn: No dot file generated. Please install pydot to generate the dot file and pdf.
build/RISCV/sim/simulate.cc:192: info: Entering event queue @ 0.  Starting simulation...
build/RISCV/sim/syscall_emul.cc:86: warn: ignoring syscall set_robust_list(...)
      (further warnings will be suppressed)
build/RISCV/sim/mem_state.cc:443: info: Increasing stack size by one page.
build/RISCV/sim/syscall_emul.cc:74: warn: ignoring syscall mprotect(...)
Exiting @ tick 73072000 because exiting with last active thread context


Results for --cpu-type=RiscvO3CPU --l1d_size=1kB --l1i_size=2kB --l2_size=32kB --l1d_assoc=1 --bp-type=TournamentBP
Global frequency set at 1000000000000 ticks per second
build/RISCV/mem/dram_interface.cc:692: warn: DRAM device capacity (8192 Mbytes) does not match the address range assigned (512 Mbytes)
0: system.remote_gdb: listening for remote gdb on port 7000
gem5 Simulator System.  https://www.gem5.org
gem5 is copyrighted software; use the --copyright option for details.

gem5 version 22.1.0.0
gem5 compiled Jun 19 2024 20:43:50
gem5 started Jun 24 2024 20:45:38
gem5 executing on ECE4700Jgem5-9, pid 22503
command line: build/RISCV/gem5.opt configs/example/se.py --param 'system.cpu[0].workload[:].release="99.99.99"' --cmd=lab4/part2_test --cpu-type=RiscvO3CPU --l1d_size=1kB --l1i_size=2kB --l2_size=32kB --l1d_assoc=1 --bp-type=TournamentBP --caches --l2cache

**** REAL SIMULATION ****
warn: The `get_runtime_isa` function is deprecated. Please migrate away from using this function.
warn: The `get_runtime_isa` function is deprecated. Please migrate away from using this function.
warn: No dot file generated. Please install pydot to generate the dot file and pdf.
build/RISCV/sim/simulate.cc:192: info: Entering event queue @ 0.  Starting simulation...
build/RISCV/sim/syscall_emul.cc:86: warn: ignoring syscall set_robust_list(...)
      (further warnings will be suppressed)
build/RISCV/sim/mem_state.cc:443: info: Increasing stack size by one page.
build/RISCV/sim/syscall_emul.cc:74: warn: ignoring syscall mprotect(...)
Exiting @ tick 80118000 because exiting with last active thread context


Results for --cpu-type=RiscvO3CPU --l1d_size=1kB --l1i_size=2kB --l2_size=32kB --l1d_assoc=1 --bp-type=LTAGE
Global frequency set at 1000000000000 ticks per second
build/RISCV/mem/dram_interface.cc:692: warn: DRAM device capacity (8192 Mbytes) does not match the address range assigned (512 Mbytes)
0: system.remote_gdb: listening for remote gdb on port 7000
gem5 Simulator System.  https://www.gem5.org
gem5 is copyrighted software; use the --copyright option for details.

gem5 version 22.1.0.0
gem5 compiled Jun 19 2024 20:43:50
gem5 started Jun 24 2024 20:45:39
gem5 executing on ECE4700Jgem5-9, pid 22504
command line: build/RISCV/gem5.opt configs/example/se.py --param 'system.cpu[0].workload[:].release="99.99.99"' --cmd=lab4/part2_test --cpu-type=RiscvO3CPU --l1d_size=1kB --l1i_size=2kB --l2_size=32kB --l1d_assoc=1 --bp-type=LTAGE --caches --l2cache

**** REAL SIMULATION ****
warn: The `get_runtime_isa` function is deprecated. Please migrate away from using this function.
warn: The `get_runtime_isa` function is deprecated. Please migrate away from using this function.
warn: No dot file generated. Please install pydot to generate the dot file and pdf.
build/RISCV/sim/simulate.cc:192: info: Entering event queue @ 0.  Starting simulation...
build/RISCV/sim/syscall_emul.cc:86: warn: ignoring syscall set_robust_list(...)
      (further warnings will be suppressed)
build/RISCV/sim/mem_state.cc:443: info: Increasing stack size by one page.
build/RISCV/sim/syscall_emul.cc:74: warn: ignoring syscall mprotect(...)
Exiting @ tick 84951000 because exiting with last active thread context


Results for --cpu-type=RiscvO3CPU --l1d_size=1kB --l1i_size=2kB --l2_size=32kB --l1d_assoc=2 --bp-type=TournamentBP
Global frequency set at 1000000000000 ticks per second
build/RISCV/mem/dram_interface.cc:692: warn: DRAM device capacity (8192 Mbytes) does not match the address range assigned (512 Mbytes)
0: system.remote_gdb: listening for remote gdb on port 7000
gem5 Simulator System.  https://www.gem5.org
gem5 is copyrighted software; use the --copyright option for details.

gem5 version 22.1.0.0
gem5 compiled Jun 19 2024 20:43:50
gem5 started Jun 24 2024 20:45:40
gem5 executing on ECE4700Jgem5-9, pid 22505
command line: build/RISCV/gem5.opt configs/example/se.py --param 'system.cpu[0].workload[:].release="99.99.99"' --cmd=lab4/part2_test --cpu-type=RiscvO3CPU --l1d_size=1kB --l1i_size=2kB --l2_size=32kB --l1d_assoc=2 --bp-type=TournamentBP --caches --l2cache

**** REAL SIMULATION ****
warn: The `get_runtime_isa` function is deprecated. Please migrate away from using this function.
warn: The `get_runtime_isa` function is deprecated. Please migrate away from using this function.
warn: No dot file generated. Please install pydot to generate the dot file and pdf.
build/RISCV/sim/simulate.cc:192: info: Entering event queue @ 0.  Starting simulation...
build/RISCV/sim/syscall_emul.cc:86: warn: ignoring syscall set_robust_list(...)
      (further warnings will be suppressed)
build/RISCV/sim/mem_state.cc:443: info: Increasing stack size by one page.
build/RISCV/sim/syscall_emul.cc:74: warn: ignoring syscall mprotect(...)
Exiting @ tick 70057000 because exiting with last active thread context


Results for --cpu-type=RiscvO3CPU --l1d_size=1kB --l1i_size=2kB --l2_size=32kB --l1d_assoc=2 --bp-type=LTAGE
Global frequency set at 1000000000000 ticks per second
build/RISCV/mem/dram_interface.cc:692: warn: DRAM device capacity (8192 Mbytes) does not match the address range assigned (512 Mbytes)
0: system.remote_gdb: listening for remote gdb on port 7000
gem5 Simulator System.  https://www.gem5.org
gem5 is copyrighted software; use the --copyright option for details.

gem5 version 22.1.0.0
gem5 compiled Jun 19 2024 20:43:50
gem5 started Jun 24 2024 20:45:41
gem5 executing on ECE4700Jgem5-9, pid 22506
command line: build/RISCV/gem5.opt configs/example/se.py --param 'system.cpu[0].workload[:].release="99.99.99"' --cmd=lab4/part2_test --cpu-type=RiscvO3CPU --l1d_size=1kB --l1i_size=2kB --l2_size=32kB --l1d_assoc=2 --bp-type=LTAGE --caches --l2cache

**** REAL SIMULATION ****
warn: The `get_runtime_isa` function is deprecated. Please migrate away from using this function.
warn: The `get_runtime_isa` function is deprecated. Please migrate away from using this function.
warn: No dot file generated. Please install pydot to generate the dot file and pdf.
build/RISCV/sim/simulate.cc:192: info: Entering event queue @ 0.  Starting simulation...
build/RISCV/sim/syscall_emul.cc:86: warn: ignoring syscall set_robust_list(...)
      (further warnings will be suppressed)
build/RISCV/sim/mem_state.cc:443: info: Increasing stack size by one page.
build/RISCV/sim/syscall_emul.cc:74: warn: ignoring syscall mprotect(...)
Exiting @ tick 74522000 because exiting with last active thread context


Results for --cpu-type=RiscvO3CPU --l1d_size=1kB --l1i_size=2kB --l2_size=32kB --l1d_assoc=4 --bp-type=TournamentBP
Global frequency set at 1000000000000 ticks per second
build/RISCV/mem/dram_interface.cc:692: warn: DRAM device capacity (8192 Mbytes) does not match the address range assigned (512 Mbytes)
0: system.remote_gdb: listening for remote gdb on port 7000
gem5 Simulator System.  https://www.gem5.org
gem5 is copyrighted software; use the --copyright option for details.

gem5 version 22.1.0.0
gem5 compiled Jun 19 2024 20:43:50
gem5 started Jun 24 2024 20:45:43
gem5 executing on ECE4700Jgem5-9, pid 22507
command line: build/RISCV/gem5.opt configs/example/se.py --param 'system.cpu[0].workload[:].release="99.99.99"' --cmd=lab4/part2_test --cpu-type=RiscvO3CPU --l1d_size=1kB --l1i_size=2kB --l2_size=32kB --l1d_assoc=4 --bp-type=TournamentBP --caches --l2cache

**** REAL SIMULATION ****
warn: The `get_runtime_isa` function is deprecated. Please migrate away from using this function.
warn: The `get_runtime_isa` function is deprecated. Please migrate away from using this function.
warn: No dot file generated. Please install pydot to generate the dot file and pdf.
build/RISCV/sim/simulate.cc:192: info: Entering event queue @ 0.  Starting simulation...
build/RISCV/sim/syscall_emul.cc:86: warn: ignoring syscall set_robust_list(...)
      (further warnings will be suppressed)
build/RISCV/sim/mem_state.cc:443: info: Increasing stack size by one page.
build/RISCV/sim/syscall_emul.cc:74: warn: ignoring syscall mprotect(...)
Exiting @ tick 68256000 because exiting with last active thread context


Results for --cpu-type=RiscvO3CPU --l1d_size=1kB --l1i_size=2kB --l2_size=32kB --l1d_assoc=4 --bp-type=LTAGE
Global frequency set at 1000000000000 ticks per second
build/RISCV/mem/dram_interface.cc:692: warn: DRAM device capacity (8192 Mbytes) does not match the address range assigned (512 Mbytes)
0: system.remote_gdb: listening for remote gdb on port 7000
gem5 Simulator System.  https://www.gem5.org
gem5 is copyrighted software; use the --copyright option for details.

gem5 version 22.1.0.0
gem5 compiled Jun 19 2024 20:43:50
gem5 started Jun 24 2024 20:45:44
gem5 executing on ECE4700Jgem5-9, pid 22508
command line: build/RISCV/gem5.opt configs/example/se.py --param 'system.cpu[0].workload[:].release="99.99.99"' --cmd=lab4/part2_test --cpu-type=RiscvO3CPU --l1d_size=1kB --l1i_size=2kB --l2_size=32kB --l1d_assoc=4 --bp-type=LTAGE --caches --l2cache

**** REAL SIMULATION ****
warn: The `get_runtime_isa` function is deprecated. Please migrate away from using this function.
warn: The `get_runtime_isa` function is deprecated. Please migrate away from using this function.
warn: No dot file generated. Please install pydot to generate the dot file and pdf.
build/RISCV/sim/simulate.cc:192: info: Entering event queue @ 0.  Starting simulation...
build/RISCV/sim/syscall_emul.cc:86: warn: ignoring syscall set_robust_list(...)
      (further warnings will be suppressed)
build/RISCV/sim/mem_state.cc:443: info: Increasing stack size by one page.
build/RISCV/sim/syscall_emul.cc:74: warn: ignoring syscall mprotect(...)
Exiting @ tick 72868000 because exiting with last active thread context


Results for --cpu-type=RiscvO3CPU --l1d_size=1kB --l1i_size=2kB --l2_size=32kB --l1d_assoc=8 --bp-type=TournamentBP
Global frequency set at 1000000000000 ticks per second
build/RISCV/mem/dram_interface.cc:692: warn: DRAM device capacity (8192 Mbytes) does not match the address range assigned (512 Mbytes)
0: system.remote_gdb: listening for remote gdb on port 7000
gem5 Simulator System.  https://www.gem5.org
gem5 is copyrighted software; use the --copyright option for details.

gem5 version 22.1.0.0
gem5 compiled Jun 19 2024 20:43:50
gem5 started Jun 24 2024 20:45:45
gem5 executing on ECE4700Jgem5-9, pid 22509
command line: build/RISCV/gem5.opt configs/example/se.py --param 'system.cpu[0].workload[:].release="99.99.99"' --cmd=lab4/part2_test --cpu-type=RiscvO3CPU --l1d_size=1kB --l1i_size=2kB --l2_size=32kB --l1d_assoc=8 --bp-type=TournamentBP --caches --l2cache

**** REAL SIMULATION ****
warn: The `get_runtime_isa` function is deprecated. Please migrate away from using this function.
warn: The `get_runtime_isa` function is deprecated. Please migrate away from using this function.
warn: No dot file generated. Please install pydot to generate the dot file and pdf.
build/RISCV/sim/simulate.cc:192: info: Entering event queue @ 0.  Starting simulation...
build/RISCV/sim/syscall_emul.cc:86: warn: ignoring syscall set_robust_list(...)
      (further warnings will be suppressed)
build/RISCV/sim/mem_state.cc:443: info: Increasing stack size by one page.
build/RISCV/sim/syscall_emul.cc:74: warn: ignoring syscall mprotect(...)
Exiting @ tick 68225000 because exiting with last active thread context


Results for --cpu-type=RiscvO3CPU --l1d_size=1kB --l1i_size=2kB --l2_size=32kB --l1d_assoc=8 --bp-type=LTAGE
Global frequency set at 1000000000000 ticks per second
build/RISCV/mem/dram_interface.cc:692: warn: DRAM device capacity (8192 Mbytes) does not match the address range assigned (512 Mbytes)
0: system.remote_gdb: listening for remote gdb on port 7000
gem5 Simulator System.  https://www.gem5.org
gem5 is copyrighted software; use the --copyright option for details.

gem5 version 22.1.0.0
gem5 compiled Jun 19 2024 20:43:50
gem5 started Jun 24 2024 20:45:46
gem5 executing on ECE4700Jgem5-9, pid 22511
command line: build/RISCV/gem5.opt configs/example/se.py --param 'system.cpu[0].workload[:].release="99.99.99"' --cmd=lab4/part2_test --cpu-type=RiscvO3CPU --l1d_size=1kB --l1i_size=2kB --l2_size=32kB --l1d_assoc=8 --bp-type=LTAGE --caches --l2cache

**** REAL SIMULATION ****
warn: The `get_runtime_isa` function is deprecated. Please migrate away from using this function.
warn: The `get_runtime_isa` function is deprecated. Please migrate away from using this function.
warn: No dot file generated. Please install pydot to generate the dot file and pdf.
build/RISCV/sim/simulate.cc:192: info: Entering event queue @ 0.  Starting simulation...
build/RISCV/sim/syscall_emul.cc:86: warn: ignoring syscall set_robust_list(...)
      (further warnings will be suppressed)
build/RISCV/sim/mem_state.cc:443: info: Increasing stack size by one page.
build/RISCV/sim/syscall_emul.cc:74: warn: ignoring syscall mprotect(...)
Exiting @ tick 72741000 because exiting with last active thread context


Results for --cpu-type=RiscvO3CPU --l1d_size=1kB --l1i_size=2kB --l2_size=16kB --l1d_assoc=1 --bp-type=TournamentBP
Global frequency set at 1000000000000 ticks per second
build/RISCV/mem/dram_interface.cc:692: warn: DRAM device capacity (8192 Mbytes) does not match the address range assigned (512 Mbytes)
0: system.remote_gdb: listening for remote gdb on port 7000
gem5 Simulator System.  https://www.gem5.org
gem5 is copyrighted software; use the --copyright option for details.

gem5 version 22.1.0.0
gem5 compiled Jun 19 2024 20:43:50
gem5 started Jun 24 2024 20:45:48
gem5 executing on ECE4700Jgem5-9, pid 22512
command line: build/RISCV/gem5.opt configs/example/se.py --param 'system.cpu[0].workload[:].release="99.99.99"' --cmd=lab4/part2_test --cpu-type=RiscvO3CPU --l1d_size=1kB --l1i_size=2kB --l2_size=16kB --l1d_assoc=1 --bp-type=TournamentBP --caches --l2cache

**** REAL SIMULATION ****
warn: The `get_runtime_isa` function is deprecated. Please migrate away from using this function.
warn: The `get_runtime_isa` function is deprecated. Please migrate away from using this function.
warn: No dot file generated. Please install pydot to generate the dot file and pdf.
build/RISCV/sim/simulate.cc:192: info: Entering event queue @ 0.  Starting simulation...
build/RISCV/sim/syscall_emul.cc:86: warn: ignoring syscall set_robust_list(...)
      (further warnings will be suppressed)
build/RISCV/sim/mem_state.cc:443: info: Increasing stack size by one page.
build/RISCV/sim/syscall_emul.cc:74: warn: ignoring syscall mprotect(...)
Exiting @ tick 80383000 because exiting with last active thread context


Results for --cpu-type=RiscvO3CPU --l1d_size=1kB --l1i_size=2kB --l2_size=16kB --l1d_assoc=1 --bp-type=LTAGE
Global frequency set at 1000000000000 ticks per second
build/RISCV/mem/dram_interface.cc:692: warn: DRAM device capacity (8192 Mbytes) does not match the address range assigned (512 Mbytes)
0: system.remote_gdb: listening for remote gdb on port 7000
gem5 Simulator System.  https://www.gem5.org
gem5 is copyrighted software; use the --copyright option for details.

gem5 version 22.1.0.0
gem5 compiled Jun 19 2024 20:43:50
gem5 started Jun 24 2024 20:45:49
gem5 executing on ECE4700Jgem5-9, pid 22513
command line: build/RISCV/gem5.opt configs/example/se.py --param 'system.cpu[0].workload[:].release="99.99.99"' --cmd=lab4/part2_test --cpu-type=RiscvO3CPU --l1d_size=1kB --l1i_size=2kB --l2_size=16kB --l1d_assoc=1 --bp-type=LTAGE --caches --l2cache

**** REAL SIMULATION ****
warn: The `get_runtime_isa` function is deprecated. Please migrate away from using this function.
warn: The `get_runtime_isa` function is deprecated. Please migrate away from using this function.
[...]
build/RISCV/sim/simulate.cc:192: info: Entering event queue @ 0.  Starting simulation...
build/RISCV/sim/syscall_emul.cc:86: warn: ignoring syscall set_robust_list(...)
      (further warnings will be suppressed)
build/RISCV/sim/mem_state.cc:443: info: Increasing stack size by one page.
build/RISCV/sim/syscall_emul.cc:74: warn: ignoring syscall mprotect(...)
Exiting @ tick 457656500 because exiting with last active thread context


Results for --cpu-type=RiscvTimingSimpleCPU --l1d_size=4kB --l1i_size=4kB --l2_size=16kB --l1d_assoc=4 --bp-type=TournamentBP
Global frequency set at 1000000000000 ticks per second
build/RISCV/mem/dram_interface.cc:692: warn: DRAM device capacity (8192 Mbytes) does not match the address range assigned (512 Mbytes)
0: system.remote_gdb: listening for remote gdb on port 7000
gem5 Simulator System.  https://www.gem5.org
gem5 is copyrighted software; use the --copyright option for details.

gem5 version 22.1.0.0
gem5 compiled Jun 19 2024 20:43:50
gem5 started Jun 24 2024 20:54:10
gem5 executing on ECE4700Jgem5-9, pid 23113
command line: build/RISCV/gem5.opt configs/example/se.py --param 'system.cpu[0].workload[:].release="99.99.99"' --cmd=lab4/part2_test --cpu-type=RiscvTimingSimpleCPU --l1d_size=4kB --l1i_size=4kB --l2_size=16kB --l1d_assoc=4 --bp-type=TournamentBP --caches --l2cache

**** REAL SIMULATION ****
warn: The `get_runtime_isa` function is deprecated. Please migrate away from using this function.
warn: The `get_runtime_isa` function is deprecated. Please migrate away from using this function.
warn: No dot file generated. Please install pydot to generate the dot file and pdf.
build/RISCV/sim/simulate.cc:192: info: Entering event queue @ 0.  Starting simulation...
build/RISCV/sim/syscall_emul.cc:86: warn: ignoring syscall set_robust_list(...)
      (further warnings will be suppressed)
build/RISCV/sim/mem_state.cc:443: info: Increasing stack size by one page.
build/RISCV/sim/syscall_emul.cc:74: warn: ignoring syscall mprotect(...)
Exiting @ tick 458103500 because exiting with last active thread context


Results for --cpu-type=RiscvTimingSimpleCPU --l1d_size=4kB --l1i_size=4kB --l2_size=16kB --l1d_assoc=4 --bp-type=LTAGE
Global frequency set at 1000000000000 ticks per second
build/RISCV/mem/dram_interface.cc:692: warn: DRAM device capacity (8192 Mbytes) does not match the address range assigned (512 Mbytes)
0: system.remote_gdb: listening for remote gdb on port 7000
gem5 Simulator System.  https://www.gem5.org
gem5 is copyrighted software; use the --copyright option for details.

gem5 version 22.1.0.0
gem5 compiled Jun 19 2024 20:43:50
gem5 started Jun 24 2024 20:54:11
gem5 executing on ECE4700Jgem5-9, pid 23114
command line: build/RISCV/gem5.opt configs/example/se.py --param 'system.cpu[0].workload[:].release="99.99.99"' --cmd=lab4/part2_test --cpu-type=RiscvTimingSimpleCPU --l1d_size=4kB --l1i_size=4kB --l2_size=16kB --l1d_assoc=4 --bp-type=LTAGE --caches --l2cache

**** REAL SIMULATION ****
warn: The `get_runtime_isa` function is deprecated. Please migrate away from using this function.
warn: The `get_runtime_isa` function is deprecated. Please migrate away from using this function.
warn: No dot file generated. Please install pydot to generate the dot file and pdf.
build/RISCV/sim/simulate.cc:192: info: Entering event queue @ 0.  Starting simulation...
build/RISCV/sim/syscall_emul.cc:86: warn: ignoring syscall set_robust_list(...)
      (further warnings will be suppressed)
build/RISCV/sim/mem_state.cc:443: info: Increasing stack size by one page.
build/RISCV/sim/syscall_emul.cc:74: warn: ignoring syscall mprotect(...)
Exiting @ tick 458103500 because exiting with last active thread context


Results for --cpu-type=RiscvTimingSimpleCPU --l1d_size=4kB --l1i_size=4kB --l2_size=16kB --l1d_assoc=8 --bp-type=TournamentBP
Global frequency set at 1000000000000 ticks per second
build/RISCV/mem/dram_interface.cc:692: warn: DRAM device capacity (8192 Mbytes) does not match the address range assigned (512 Mbytes)
0: system.remote_gdb: listening for remote gdb on port 7000
gem5 Simulator System.  https://www.gem5.org
gem5 is copyrighted software; use the --copyright option for details.

gem5 version 22.1.0.0
gem5 compiled Jun 19 2024 20:43:50
gem5 started Jun 24 2024 20:54:12
gem5 executing on ECE4700Jgem5-9, pid 23115
command line: build/RISCV/gem5.opt configs/example/se.py --param 'system.cpu[0].workload[:].release="99.99.99"' --cmd=lab4/part2_test --cpu-type=RiscvTimingSimpleCPU --l1d_size=4kB --l1i_size=4kB --l2_size=16kB --l1d_assoc=8 --bp-type=TournamentBP --caches --l2cache

**** REAL SIMULATION ****
warn: The `get_runtime_isa` function is deprecated. Please migrate away from using this function.
warn: The `get_runtime_isa` function is deprecated. Please migrate away from using this function.
warn: No dot file generated. Please install pydot to generate the dot file and pdf.
build/RISCV/sim/simulate.cc:192: info: Entering event queue @ 0.  Starting simulation...
build/RISCV/sim/syscall_emul.cc:86: warn: ignoring syscall set_robust_list(...)
      (further warnings will be suppressed)
build/RISCV/sim/mem_state.cc:443: info: Increasing stack size by one page.
build/RISCV/sim/syscall_emul.cc:74: warn: ignoring syscall mprotect(...)
Exiting @ tick 457664500 because exiting with last active thread context


Results for --cpu-type=RiscvTimingSimpleCPU --l1d_size=4kB --l1i_size=4kB --l2_size=16kB --l1d_assoc=8 --bp-type=LTAGE
Global frequency set at 1000000000000 ticks per second
build/RISCV/mem/dram_interface.cc:692: warn: DRAM device capacity (8192 Mbytes) does not match the address range assigned (512 Mbytes)
0: system.remote_gdb: listening for remote gdb on port 7000
gem5 Simulator System.  https://www.gem5.org
gem5 is copyrighted software; use the --copyright option for details.

gem5 version 22.1.0.0
gem5 compiled Jun 19 2024 20:43:50
gem5 started Jun 24 2024 20:54:12
gem5 executing on ECE4700Jgem5-9, pid 23116
command line: build/RISCV/gem5.opt configs/example/se.py --param 'system.cpu[0].workload[:].release="99.99.99"' --cmd=lab4/part2_test --cpu-type=RiscvTimingSimpleCPU --l1d_size=4kB --l1i_size=4kB --l2_size=16kB --l1d_assoc=8 --bp-type=LTAGE --caches --l2cache

**** REAL SIMULATION ****
warn: The `get_runtime_isa` function is deprecated. Please migrate away from using this function.
warn: The `get_runtime_isa` function is deprecated. Please migrate away from using this function.
warn: No dot file generated. Please install pydot to generate the dot file and pdf.
build/RISCV/sim/simulate.cc:192: info: Entering event queue @ 0.  Starting simulation...
build/RISCV/sim/syscall_emul.cc:86: warn: ignoring syscall set_robust_list(...)
      (further warnings will be suppressed)
build/RISCV/sim/mem_state.cc:443: info: Increasing stack size by one page.
build/RISCV/sim/syscall_emul.cc:74: warn: ignoring syscall mprotect(...)
Exiting @ tick 457664500 because exiting with last active thread context


Results for --cpu-type=RiscvTimingSimpleCPU --l1d_size=4kB --l1i_size=4kB --l2_size=32kB --l1d_assoc=1 --bp-type=TournamentBP
Global frequency set at 1000000000000 ticks per second
build/RISCV/mem/dram_interface.cc:692: warn: DRAM device capacity (8192 Mbytes) does not match the address range assigned (512 Mbytes)
0: system.remote_gdb: listening for remote gdb on port 7000
gem5 Simulator System.  https://www.gem5.org
gem5 is copyrighted software; use the --copyright option for details.

gem5 version 22.1.0.0
gem5 compiled Jun 19 2024 20:43:50
gem5 started Jun 24 2024 20:54:13
gem5 executing on ECE4700Jgem5-9, pid 23117
command line: build/RISCV/gem5.opt configs/example/se.py --param 'system.cpu[0].workload[:].release="99.99.99"' --cmd=lab4/part2_test --cpu-type=RiscvTimingSimpleCPU --l1d_size=4kB --l1i_size=4kB --l2_size=32kB --l1d_assoc=1 --bp-type=TournamentBP --caches --l2cache

**** REAL SIMULATION ****
warn: The `get_runtime_isa` function is deprecated. Please migrate away from using this function.
warn: The `get_runtime_isa` function is deprecated. Please migrate away from using this function.
warn: No dot file generated. Please install pydot to generate the dot file and pdf.
build/RISCV/sim/simulate.cc:192: info: Entering event queue @ 0.  Starting simulation...
build/RISCV/sim/syscall_emul.cc:86: warn: ignoring syscall set_robust_list(...)
      (further warnings will be suppressed)
build/RISCV/sim/mem_state.cc:443: info: Increasing stack size by one page.
build/RISCV/sim/syscall_emul.cc:74: warn: ignoring syscall mprotect(...)
Exiting @ tick 457874500 because exiting with last active thread context


Results for --cpu-type=RiscvTimingSimpleCPU --l1d_size=4kB --l1i_size=4kB --l2_size=32kB --l1d_assoc=1 --bp-type=LTAGE
Global frequency set at 1000000000000 ticks per second
build/RISCV/mem/dram_interface.cc:692: warn: DRAM device capacity (8192 Mbytes) does not match the address range assigned (512 Mbytes)
0: system.remote_gdb: listening for remote gdb on port 7000
gem5 Simulator System.  https://www.gem5.org
gem5 is copyrighted software; use the --copyright option for details.

gem5 version 22.1.0.0
gem5 compiled Jun 19 2024 20:43:50
gem5 started Jun 24 2024 20:54:14
gem5 executing on ECE4700Jgem5-9, pid 23118
command line: build/RISCV/gem5.opt configs/example/se.py --param 'system.cpu[0].workload[:].release="99.99.99"' --cmd=lab4/part2_test --cpu-type=RiscvTimingSimpleCPU --l1d_size=4kB --l1i_size=4kB --l2_size=32kB --l1d_assoc=1 --bp-type=LTAGE --caches --l2cache

**** REAL SIMULATION ****
warn: The `get_runtime_isa` function is deprecated. Please migrate away from using this function.
warn: The `get_runtime_isa` function is deprecated. Please migrate away from using this function.
warn: No dot file generated. Please install pydot to generate the dot file and pdf.
build/RISCV/sim/simulate.cc:192: info: Entering event queue @ 0.  Starting simulation...
build/RISCV/sim/syscall_emul.cc:86: warn: ignoring syscall set_robust_list(...)
      (further warnings will be suppressed)
build/RISCV/sim/mem_state.cc:443: info: Increasing stack size by one page.
build/RISCV/sim/syscall_emul.cc:74: warn: ignoring syscall mprotect(...)
Exiting @ tick 457874500 because exiting with last active thread context


Results for --cpu-type=RiscvTimingSimpleCPU --l1d_size=4kB --l1i_size=4kB --l2_size=32kB --l1d_assoc=2 --bp-type=TournamentBP
Global frequency set at 1000000000000 ticks per second
build/RISCV/mem/dram_interface.cc:692: warn: DRAM device capacity (8192 Mbytes) does not match the address range assigned (512 Mbytes)
0: system.remote_gdb: listening for remote gdb on port 7000
gem5 Simulator System.  https://www.gem5.org
gem5 is copyrighted software; use the --copyright option for details.

gem5 version 22.1.0.0
gem5 compiled Jun 19 2024 20:43:50
gem5 started Jun 24 2024 20:54:14
gem5 executing on ECE4700Jgem5-9, pid 23119
command line: build/RISCV/gem5.opt configs/example/se.py --param 'system.cpu[0].workload[:].release="99.99.99"' --cmd=lab4/part2_test --cpu-type=RiscvTimingSimpleCPU --l1d_size=4kB --l1i_size=4kB --l2_size=32kB --l1d_assoc=2 --bp-type=TournamentBP --caches --l2cache

**** REAL SIMULATION ****
warn: The `get_runtime_isa` function is deprecated. Please migrate away from using this function.
warn: The `get_runtime_isa` function is deprecated. Please migrate away from using this function.
warn: No dot file generated. Please install pydot to generate the dot file and pdf.
build/RISCV/sim/simulate.cc:192: info: Entering event queue @ 0.  Starting simulation...
build/RISCV/sim/syscall_emul.cc:86: warn: ignoring syscall set_robust_list(...)
      (further warnings will be suppressed)
build/RISCV/sim/mem_state.cc:443: info: Increasing stack size by one page.
build/RISCV/sim/syscall_emul.cc:74: warn: ignoring syscall mprotect(...)
Exiting @ tick 457127500 because exiting with last active thread context


Results for --cpu-type=RiscvTimingSimpleCPU --l1d_size=4kB --l1i_size=4kB --l2_size=32kB --l1d_assoc=2 --bp-type=LTAGE
Global frequency set at 1000000000000 ticks per second
build/RISCV/mem/dram_interface.cc:692: warn: DRAM device capacity (8192 Mbytes) does not match the address range assigned (512 Mbytes)
0: system.remote_gdb: listening for remote gdb on port 7000
gem5 Simulator System.  https://www.gem5.org
gem5 is copyrighted software; use the --copyright option for details.

gem5 version 22.1.0.0
gem5 compiled Jun 19 2024 20:43:50
gem5 started Jun 24 2024 20:54:15
gem5 executing on ECE4700Jgem5-9, pid 23120
command line: build/RISCV/gem5.opt configs/example/se.py --param 'system.cpu[0].workload[:].release="99.99.99"' --cmd=lab4/part2_test --cpu-type=RiscvTimingSimpleCPU --l1d_size=4kB --l1i_size=4kB --l2_size=32kB --l1d_assoc=2 --bp-type=LTAGE --caches --l2cache

**** REAL SIMULATION ****
warn: The `get_runtime_isa` function is deprecated. Please migrate away from using this function.
warn: The `get_runtime_isa` function is deprecated. Please migrate away from using this function.
warn: No dot file generated. Please install pydot to generate the dot file and pdf.
build/RISCV/sim/simulate.cc:192: info: Entering event queue @ 0.  Starting simulation...
build/RISCV/sim/syscall_emul.cc:86: warn: ignoring syscall set_robust_list(...)
      (further warnings will be suppressed)
build/RISCV/sim/mem_state.cc:443: info: Increasing stack size by one page.
build/RISCV/sim/syscall_emul.cc:74: warn: ignoring syscall mprotect(...)
Exiting @ tick 457127500 because exiting with last active thread context


Results for --cpu-type=RiscvTimingSimpleCPU --l1d_size=4kB --l1i_size=4kB --l2_size=32kB --l1d_assoc=4 --bp-type=TournamentBP
Global frequency set at 1000000000000 ticks per second
build/RISCV/mem/dram_interface.cc:692: warn: DRAM device capacity (8192 Mbytes) does not match the address range assigned (512 Mbytes)
0: system.remote_gdb: listening for remote gdb on port 7000
gem5 Simulator System.  https://www.gem5.org
gem5 is copyrighted software; use the --copyright option for details.

gem5 version 22.1.0.0
gem5 compiled Jun 19 2024 20:43:50
gem5 started Jun 24 2024 20:54:16
gem5 executing on ECE4700Jgem5-9, pid 23122
command line: build/RISCV/gem5.opt configs/example/se.py --param 'system.cpu[0].workload[:].release="99.99.99"' --cmd=lab4/part2_test --cpu-type=RiscvTimingSimpleCPU --l1d_size=4kB --l1i_size=4kB --l2_size=32kB --l1d_assoc=4 --bp-type=TournamentBP --caches --l2cache

**** REAL SIMULATION ****
warn: The `get_runtime_isa` function is deprecated. Please migrate away from using this function.
warn: The `get_runtime_isa` function is deprecated. Please migrate away from using this function.
warn: No dot file generated. Please install pydot to generate the dot file and pdf.
build/RISCV/sim/simulate.cc:192: info: Entering event queue @ 0.  Starting simulation...
build/RISCV/sim/syscall_emul.cc:86: warn: ignoring syscall set_robust_list(...)
      (further warnings will be suppressed)
build/RISCV/sim/mem_state.cc:443: info: Increasing stack size by one page.
build/RISCV/sim/syscall_emul.cc:74: warn: ignoring syscall mprotect(...)
Exiting @ tick 457073500 because exiting with last active thread context


Results for --cpu-type=RiscvTimingSimpleCPU --l1d_size=4kB --l1i_size=4kB --l2_size=32kB --l1d_assoc=4 --bp-type=LTAGE
Global frequency set at 1000000000000 ticks per second
build/RISCV/mem/dram_interface.cc:692: warn: DRAM device capacity (8192 Mbytes) does not match the address range assigned (512 Mbytes)
0: system.remote_gdb: listening for remote gdb on port 7000
gem5 Simulator System.  https://www.gem5.org
gem5 is copyrighted software; use the --copyright option for details.

gem5 version 22.1.0.0
gem5 compiled Jun 19 2024 20:43:50
gem5 started Jun 24 2024 20:54:17
gem5 executing on ECE4700Jgem5-9, pid 23123
command line: build/RISCV/gem5.opt configs/example/se.py --param 'system.cpu[0].workload[:].release="99.99.99"' --cmd=lab4/part2_test --cpu-type=RiscvTimingSimpleCPU --l1d_size=4kB --l1i_size=4kB --l2_size=32kB --l1d_assoc=4 --bp-type=LTAGE --caches --l2cache

**** REAL SIMULATION ****
warn: The `get_runtime_isa` function is deprecated. Please migrate away from using this function.
warn: The `get_runtime_isa` function is deprecated. Please migrate away from using this function.
warn: No dot file generated. Please install pydot to generate the dot file and pdf.
build/RISCV/sim/simulate.cc:192: info: Entering event queue @ 0.  Starting simulation...
build/RISCV/sim/syscall_emul.cc:86: warn: ignoring syscall set_robust_list(...)
      (further warnings will be suppressed)
build/RISCV/sim/mem_state.cc:443: info: Increasing stack size by one page.
build/RISCV/sim/syscall_emul.cc:74: warn: ignoring syscall mprotect(...)
Exiting @ tick 457073500 because exiting with last active thread context


Results for --cpu-type=RiscvTimingSimpleCPU --l1d_size=4kB --l1i_size=4kB --l2_size=32kB --l1d_assoc=8 --bp-type=TournamentBP
Global frequency set at 1000000000000 ticks per second
build/RISCV/mem/dram_interface.cc:692: warn: DRAM device capacity (8192 Mbytes) does not match the address range assigned (512 Mbytes)
0: system.remote_gdb: listening for remote gdb on port 7000
gem5 Simulator System.  https://www.gem5.org
gem5 is copyrighted software; use the --copyright option for details.

gem5 version 22.1.0.0
gem5 compiled Jun 19 2024 20:43:50
gem5 started Jun 24 2024 20:54:17
gem5 executing on ECE4700Jgem5-9, pid 23124
command line: build/RISCV/gem5.opt configs/example/se.py --param 'system.cpu[0].workload[:].release="99.99.99"' --cmd=lab4/part2_test --cpu-type=RiscvTimingSimpleCPU --l1d_size=4kB --l1i_size=4kB --l2_size=32kB --l1d_assoc=8 --bp-type=TournamentBP --caches --l2cache

**** REAL SIMULATION ****
warn: The `get_runtime_isa` function is deprecated. Please migrate away from using this function.
warn: The `get_runtime_isa` function is deprecated. Please migrate away from using this function.
warn: No dot file generated. Please install pydot to generate the dot file and pdf.
build/RISCV/sim/simulate.cc:192: info: Entering event queue @ 0.  Starting simulation...
build/RISCV/sim/syscall_emul.cc:86: warn: ignoring syscall set_robust_list(...)
      (further warnings will be suppressed)
build/RISCV/sim/mem_state.cc:443: info: Increasing stack size by one page.
build/RISCV/sim/syscall_emul.cc:74: warn: ignoring syscall mprotect(...)
Exiting @ tick 457157500 because exiting with last active thread context


Results for --cpu-type=RiscvTimingSimpleCPU --l1d_size=4kB --l1i_size=4kB --l2_size=32kB --l1d_assoc=8 --bp-type=LTAGE
Global frequency set at 1000000000000 ticks per second
build/RISCV/mem/dram_interface.cc:692: warn: DRAM device capacity (8192 Mbytes) does not match the address range assigned (512 Mbytes)
0: system.remote_gdb: listening for remote gdb on port 7000
gem5 Simulator System.  https://www.gem5.org
gem5 is copyrighted software; use the --copyright option for details.

gem5 version 22.1.0.0
gem5 compiled Jun 19 2024 20:43:50
gem5 started Jun 24 2024 20:54:18
gem5 executing on ECE4700Jgem5-9, pid 23125
command line: build/RISCV/gem5.opt configs/example/se.py --param 'system.cpu[0].workload[:].release="99.99.99"' --cmd=lab4/part2_test --cpu-type=RiscvTimingSimpleCPU --l1d_size=4kB --l1i_size=4kB --l2_size=32kB --l1d_assoc=8 --bp-type=LTAGE --caches --l2cache

**** REAL SIMULATION ****
warn: The `get_runtime_isa` function is deprecated. Please migrate away from using this function.
warn: The `get_runtime_isa` function is deprecated. Please migrate away from using this function.
warn: No dot file generated. Please install pydot to generate the dot file and pdf.
build/RISCV/sim/simulate.cc:192: info: Entering event queue @ 0.  Starting simulation...
build/RISCV/sim/syscall_emul.cc:86: warn: ignoring syscall set_robust_list(...)
      (further warnings will be suppressed)
build/RISCV/sim/mem_state.cc:443: info: Increasing stack size by one page.
build/RISCV/sim/syscall_emul.cc:74: warn: ignoring syscall mprotect(...)
Exiting @ tick 457157500 because exiting with last active thread context


