Global frequency set at 1000000000000 ticks per second
gem5 Simulator System.  https://www.gem5.org
gem5 is copyrighted software; use the --copyright option for details.

gem5 version 22.1.0.0
gem5 compiled Jun 19 2024 20:43:50
gem5 started Jun 19 2024 23:48:05
gem5 executing on ECE4700Jgem5-9, pid 16049
command line: build/RISCV/gem5.opt configs/example/se.py --param 'system.cpu[0].workload[:].release = "99.99.99"' --cmd=lab4/part1_test

**** REAL SIMULATION ****
223912078155173245197232126220111155217213172
2361162302311232542452231861133010022523722390000000000000000000000000000000000000000000000000000000000000000000000000000000000000000000000000000000000000000000000000000000000000000000000000000000000000000000000000000000000000000000000000000000000000000000000000000000000000000000000000
Exiting @ tick 291923874500 because exiting with last active thread context
